/*---------------------------------------------------------------------------*\
| =========                 |                                                 |
| \\      /  F ield         | OpenFOAM: The Open Source CFD Toolbox           |
|  \\    /   O peration     | Version:  1.6                                   |
|   \\  /    A nd           | Web:      www.OpenFOAM.com                      |
|    \\/     M anipulation  |                                                 |
\*---------------------------------------------------------------------------*/
Exec   : adiabaticFlameT -case . controlDict
Date   : Jul 14 2008
Time   : 14:35:28
Host   : auglx106
PID    : 21193
Case   : ./.
nProcs : 1

// * * * * * * * * * * * * * * * * * * * * * * * * * * * * * * * * * * * * * //

Reading Burcat data dictionary
stoichiometricAirFuelMassRatio stoichiometricAirFuelMassRatio [0 0 0 0 0 0 0] 34.0752;
phi = 0.01
ft = 0.000293383
fuel fuel	1	2.01588
    200	6000	1000
    2.93283 0.000826598 -1.46401e-07 1.54099e-11 -6.88796e-16 -813.056 -1.02432 
    2.3443 0.00798042 -1.94779e-05 2.0157e-08 -7.37603e-12 -917.924 0.683002 
;
oxidant 	1	28.8504
    200	6000	1000
    3.10131 0.00124137 -4.18816e-07 6.64158e-11 -3.91274e-15 -985.266 5.35597 
    3.58378 -0.000727005 1.67057e-06 -1.09203e-10 -4.31765e-13 -1050.53 3.11239 
;
reactants 	1	28.7382
    200	6000	1000
    3.1006 0.00123964 -4.17676e-07 6.62025e-11 -3.89926e-15 -984.546 5.32928 
    3.57859 -0.000690587 1.58212e-06 -2.44414e-11 -4.60809e-13 -1049.97 3.10223 
;
burntProducts 	1	24.543
    200	6000	1000
    2.85691 0.00194403 -5.90213e-07 8.4096e-11 -4.49e-15 -10976.8 6.22265 
    3.76272 -0.000787587 1.93486e-06 -3.14926e-10 -3.04729e-13 -11198.7 1.64272 
;
products 	1	28.7984
    200	6000	1000
    3.09836 0.00124986 -4.20885e-07 6.66293e-11 -3.91971e-15 -1105.91 5.36643 
    3.58594 -0.000727737 1.67376e-06 -1.11687e-10 -4.30231e-13 -1173.07 3.09464 
;
Tad = 334.675

phi = 0.02
ft = 0.000586594
fuel fuel	1	2.01588
    200	6000	1000
    2.93283 0.000826598 -1.46401e-07 1.54099e-11 -6.88796e-16 -813.056 -1.02432 
    2.3443 0.00798042 -1.94779e-05 2.0157e-08 -7.37603e-12 -917.924 0.683002 
;
oxidant 	1	28.8504
    200	6000	1000
    3.10131 0.00124137 -4.18816e-07 6.64158e-11 -3.91274e-15 -985.266 5.35597 
    3.58378 -0.000727005 1.67057e-06 -1.09203e-10 -4.31765e-13 -1050.53 3.11239 
;
reactants 	1	28.6269
    200	6000	1000
    3.09991 0.00123792 -4.16547e-07 6.59909e-11 -3.88589e-15 -983.831 5.30282 
    3.57345 -0.000654472 1.4944e-06 5.96145e-11 -4.89611e-13 -1049.42 3.09215 
;
burntProducts 	1	24.543
    200	6000	1000
    2.85691 0.00194403 -5.90213e-07 8.4096e-11 -4.49e-15 -10976.8 6.22265 
    3.76272 -0.000787587 1.93486e-06 -3.14926e-10 -3.04729e-13 -11198.7 1.64272 
;
products 	1	28.7466
    200	6000	1000
    3.09542 0.00125831 -4.22946e-07 6.68419e-11 -3.92665e-15 -1226.05 5.37685 
    3.58809 -0.000728465 1.67694e-06 -1.14161e-10 -4.28704e-13 -1295.09 3.07697 
;
Tad = 369.065

phi = 0.03
ft = 0.000879632
fuel fuel	1	2.01588
    200	6000	1000
    2.93283 0.000826598 -1.46401e-07 1.54099e-11 -6.88796e-16 -813.056 -1.02432 
    2.3443 0.00798042 -1.94779e-05 2.0157e-08 -7.37603e-12 -917.924 0.683002 
;
oxidant 	1	28.8504
    200	6000	1000
    3.10131 0.00124137 -4.18816e-07 6.64158e-11 -3.91274e-15 -985.266 5.35597 
    3.58378 -0.000727005 1.67057e-06 -1.09203e-10 -4.31765e-13 -1050.53 3.11239 
;
reactants 	1	28.5165
    200	6000	1000
    3.09921 0.00123621 -4.15426e-07 6.57811e-11 -3.87262e-15 -983.123 5.27657 
    3.56835 -0.000618657 1.40741e-06 1.42973e-10 -5.18174e-13 -1048.88 3.08216 
;
burntProducts 	1	24.543
    200	6000	1000
    2.85691 0.00194403 -5.90213e-07 8.4096e-11 -4.49e-15 -10976.8 6.22265 
    3.76272 -0.000787587 1.93486e-06 -3.14926e-10 -3.04729e-13 -11198.7 1.64272 
;
products 	1	28.695
    200	6000	1000
    3.09249 0.00126672 -4.24999e-07 6.70536e-11 -3.93356e-15 -1345.69 5.38723 
    3.59023 -0.000729191 1.6801e-06 -1.16624e-10 -4.27183e-13 -1416.6 3.05937 
;
Tad = 403.143

phi = 0.04
ft = 0.0011725
fuel fuel	1	2.01588
    200	6000	1000
    2.93283 0.000826598 -1.46401e-07 1.54099e-11 -6.88796e-16 -813.056 -1.02432 
    2.3443 0.00798042 -1.94779e-05 2.0157e-08 -7.37603e-12 -917.924 0.683002 
;
oxidant 	1	28.8504
    200	6000	1000
    3.10131 0.00124137 -4.18816e-07 6.64158e-11 -3.91274e-15 -985.266 5.35597 
    3.58378 -0.000727005 1.67057e-06 -1.09203e-10 -4.31765e-13 -1050.53 3.11239 
;
reactants 	1	28.407
    200	6000	1000
    3.09853 0.00123452 -4.14315e-07 6.55731e-11 -3.85947e-15 -982.421 5.25055 
    3.5633 -0.000583137 1.32114e-06 2.25643e-10 -5.46501e-13 -1048.34 3.07225 
;
burntProducts 	1	24.543
    200	6000	1000
    2.85691 0.00194403 -5.90213e-07 8.4096e-11 -4.49e-15 -10976.8 6.22265 
    3.76272 -0.000787587 1.93486e-06 -3.14926e-10 -3.04729e-13 -11198.7 1.64272 
;
products 	1	28.6437
    200	6000	1000
    3.08958 0.0012751 -4.27042e-07 6.72644e-11 -3.94045e-15 -1464.83 5.39756 
    3.59237 -0.000729913 1.68325e-06 -1.19077e-10 -4.25668e-13 -1537.61 3.04185 
;
Tad = 436.89

phi = 0.05
ft = 0.00146519
fuel fuel	1	2.01588
    200	6000	1000
    2.93283 0.000826598 -1.46401e-07 1.54099e-11 -6.88796e-16 -813.056 -1.02432 
    2.3443 0.00798042 -1.94779e-05 2.0157e-08 -7.37603e-12 -917.924 0.683002 
;
oxidant 	1	28.8504
    200	6000	1000
    3.10131 0.00124137 -4.18816e-07 6.64158e-11 -3.91274e-15 -985.266 5.35597 
    3.58378 -0.000727005 1.67057e-06 -1.09203e-10 -4.31765e-13 -1050.53 3.11239 
;
reactants 	1	28.2985
    200	6000	1000
    3.09784 0.00123284 -4.13213e-07 6.53667e-11 -3.84643e-15 -981.724 5.22474 
    3.55828 -0.00054791 1.23559e-06 3.07633e-10 -5.74596e-13 -1047.8 3.06242 
;
burntProducts 	1	24.543
    200	6000	1000
    2.85691 0.00194403 -5.90213e-07 8.4096e-11 -4.49e-15 -10976.8 6.22265 
    3.76272 -0.000787587 1.93486e-06 -3.14926e-10 -3.04729e-13 -11198.7 1.64272 
;
products 	1	28.5925
    200	6000	1000
    3.08668 0.00128344 -4.29078e-07 6.74744e-11 -3.9473e-15 -1583.48 5.40786 
    3.59449 -0.000730632 1.68639e-06 -1.2152e-10 -4.2416e-13 -1658.12 3.0244 
;
Tad = 470.286

phi = 0.06
ft = 0.00175772
fuel fuel	1	2.01588
    200	6000	1000
    2.93283 0.000826598 -1.46401e-07 1.54099e-11 -6.88796e-16 -813.056 -1.02432 
    2.3443 0.00798042 -1.94779e-05 2.0157e-08 -7.37603e-12 -917.924 0.683002 
;
oxidant 	1	28.8504
    200	6000	1000
    3.10131 0.00124137 -4.18816e-07 6.64158e-11 -3.91274e-15 -985.266 5.35597 
    3.58378 -0.000727005 1.67057e-06 -1.09203e-10 -4.31765e-13 -1050.53 3.11239 
;
reactants 	1	28.1908
    200	6000	1000
    3.09717 0.00123118 -4.1212e-07 6.51621e-11 -3.83349e-15 -981.033 5.19913 
    3.55331 -0.000512972 1.15073e-06 3.88951e-10 -6.02459e-13 -1047.27 3.05267 
;
burntProducts 	1	24.543
    200	6000	1000
    2.85691 0.00194403 -5.90213e-07 8.4096e-11 -4.49e-15 -10976.8 6.22265 
    3.76272 -0.000787587 1.93486e-06 -3.14926e-10 -3.04729e-13 -11198.7 1.64272 
;
products 	1	28.5416
    200	6000	1000
    3.08379 0.00129175 -4.31104e-07 6.76834e-11 -3.95413e-15 -1701.63 5.4181 
    3.59661 -0.000731349 1.68952e-06 -1.23953e-10 -4.22657e-13 -1778.12 3.00702 
;
Tad = 503.319

phi = 0.07
ft = 0.00205007
fuel fuel	1	2.01588
    200	6000	1000
    2.93283 0.000826598 -1.46401e-07 1.54099e-11 -6.88796e-16 -813.056 -1.02432 
    2.3443 0.00798042 -1.94779e-05 2.0157e-08 -7.37603e-12 -917.924 0.683002 
;
oxidant 	1	28.8504
    200	6000	1000
    3.10131 0.00124137 -4.18816e-07 6.64158e-11 -3.91274e-15 -985.266 5.35597 
    3.58378 -0.000727005 1.67057e-06 -1.09203e-10 -4.31765e-13 -1050.53 3.11239 
;
reactants 	1	28.084
    200	6000	1000
    3.0965 0.00122953 -4.11035e-07 6.49591e-11 -3.82066e-15 -980.347 5.17374 
    3.54838 -0.000478318 1.06656e-06 4.69605e-10 -6.30096e-13 -1046.74 3.043 
;
burntProducts 	1	24.543
    200	6000	1000
    2.85691 0.00194403 -5.90213e-07 8.4096e-11 -4.49e-15 -10976.8 6.22265 
    3.76272 -0.000787587 1.93486e-06 -3.14926e-10 -3.04729e-13 -11198.7 1.64272 
;
products 	1	28.4908
    200	6000	1000
    3.08091 0.00130003 -4.33123e-07 6.78916e-11 -3.96093e-15 -1819.29 5.42831 
    3.59871 -0.000732062 1.69263e-06 -1.26376e-10 -4.21161e-13 -1897.63 2.98971 
;
Tad = 535.976

phi = 0.08
ft = 0.00234225
fuel fuel	1	2.01588
    200	6000	1000
    2.93283 0.000826598 -1.46401e-07 1.54099e-11 -6.88796e-16 -813.056 -1.02432 
    2.3443 0.00798042 -1.94779e-05 2.0157e-08 -7.37603e-12 -917.924 0.683002 
;
oxidant 	1	28.8504
    200	6000	1000
    3.10131 0.00124137 -4.18816e-07 6.64158e-11 -3.91274e-15 -985.266 5.35597 
    3.58378 -0.000727005 1.67057e-06 -1.09203e-10 -4.31765e-13 -1050.53 3.11239 
;
reactants 	1	27.9781
    200	6000	1000
    3.09583 0.00122789 -4.0996e-07 6.47577e-11 -3.80794e-15 -979.668 5.14856 
    3.54348 -0.000443946 9.83079e-07 5.49604e-10 -6.57508e-13 -1046.22 3.03341 
;
burntProducts 	1	24.543
    200	6000	1000
    2.85691 0.00194403 -5.90213e-07 8.4096e-11 -4.49e-15 -10976.8 6.22265 
    3.76272 -0.000787587 1.93486e-06 -3.14926e-10 -3.04729e-13 -11198.7 1.64272 
;
products 	1	28.4403
    200	6000	1000
    3.07804 0.00130827 -4.35133e-07 6.8099e-11 -3.9677e-15 -1936.47 5.43847 
    3.60081 -0.000732773 1.69573e-06 -1.28788e-10 -4.19671e-13 -2016.64 2.97248 
;
Tad = 568.251

phi = 0.09
ft = 0.00263426
fuel fuel	1	2.01588
    200	6000	1000
    2.93283 0.000826598 -1.46401e-07 1.54099e-11 -6.88796e-16 -813.056 -1.02432 
    2.3443 0.00798042 -1.94779e-05 2.0157e-08 -7.37603e-12 -917.924 0.683002 
;
oxidant 	1	28.8504
    200	6000	1000
    3.10131 0.00124137 -4.18816e-07 6.64158e-11 -3.91274e-15 -985.266 5.35597 
    3.58378 -0.000727005 1.67057e-06 -1.09203e-10 -4.31765e-13 -1050.53 3.11239 
;
reactants 	1	27.873
    200	6000	1000
    3.09517 0.00122627 -4.08894e-07 6.4558e-11 -3.79531e-15 -978.993 5.12358 
    3.53863 -0.000409853 9.00273e-07 6.28956e-10 -6.84698e-13 -1045.7 3.0239 
;
burntProducts 	1	24.543
    200	6000	1000
    2.85691 0.00194403 -5.90213e-07 8.4096e-11 -4.49e-15 -10976.8 6.22265 
    3.76272 -0.000787587 1.93486e-06 -3.14926e-10 -3.04729e-13 -11198.7 1.64272 
;
products 	1	28.39
    200	6000	1000
    3.07519 0.00131647 -4.37135e-07 6.83055e-11 -3.97444e-15 -2053.17 5.4486 
    3.6029 -0.00073348 1.69882e-06 -1.31191e-10 -4.18188e-13 -2135.17 2.95531 
;
Tad = 600.137

phi = 0.1
ft = 0.0029261
fuel fuel	1	2.01588
    200	6000	1000
    2.93283 0.000826598 -1.46401e-07 1.54099e-11 -6.88796e-16 -813.056 -1.02432 
    2.3443 0.00798042 -1.94779e-05 2.0157e-08 -7.37603e-12 -917.924 0.683002 
;
oxidant 	1	28.8504
    200	6000	1000
    3.10131 0.00124137 -4.18816e-07 6.64158e-11 -3.91274e-15 -985.266 5.35597 
    3.58378 -0.000727005 1.67057e-06 -1.09203e-10 -4.31765e-13 -1050.53 3.11239 
;
reactants 	1	27.7688
    200	6000	1000
    3.09452 0.00122466 -4.07835e-07 6.43599e-11 -3.78279e-15 -978.325 5.09879 
    3.53382 -0.000376034 8.18134e-07 7.07667e-10 -7.11669e-13 -1045.18 3.01447 
;
burntProducts 	1	24.543
    200	6000	1000
    2.85691 0.00194403 -5.90213e-07 8.4096e-11 -4.49e-15 -10976.8 6.22265 
    3.76272 -0.000787587 1.93486e-06 -3.14926e-10 -3.04729e-13 -11198.7 1.64272 
;
products 	1	28.3399
    200	6000	1000
    3.07235 0.00132465 -4.39128e-07 6.85111e-11 -3.98115e-15 -2169.38 5.45868 
    3.60498 -0.000734185 1.70189e-06 -1.33584e-10 -4.1671e-13 -2253.21 2.93822 
;
Tad = 631.632

phi = 0.11
ft = 0.00321777
fuel fuel	1	2.01588
    200	6000	1000
    2.93283 0.000826598 -1.46401e-07 1.54099e-11 -6.88796e-16 -813.056 -1.02432 
    2.3443 0.00798042 -1.94779e-05 2.0157e-08 -7.37603e-12 -917.924 0.683002 
;
oxidant 	1	28.8504
    200	6000	1000
    3.10131 0.00124137 -4.18816e-07 6.64158e-11 -3.91274e-15 -985.266 5.35597 
    3.58378 -0.000727005 1.67057e-06 -1.09203e-10 -4.31765e-13 -1050.53 3.11239 
;
reactants 	1	27.6654
    200	6000	1000
    3.09387 0.00122306 -4.06786e-07 6.41634e-11 -3.77037e-15 -977.661 5.07421 
    3.52904 -0.000342487 7.36655e-07 7.85747e-10 -7.38423e-13 -1044.67 3.00511 
;
burntProducts 	1	24.543
    200	6000	1000
    2.85691 0.00194403 -5.90213e-07 8.4096e-11 -4.49e-15 -10976.8 6.22265 
    3.76272 -0.000787587 1.93486e-06 -3.14926e-10 -3.04729e-13 -11198.7 1.64272 
;
products 	1	28.29
    200	6000	1000
    3.06951 0.00133279 -4.41114e-07 6.87159e-11 -3.98784e-15 -2285.12 5.46872 
    3.60706 -0.000734886 1.70495e-06 -1.35967e-10 -4.15239e-13 -2370.76 2.92119 
;
Tad = 662.736

phi = 0.12
ft = 0.00350927
fuel fuel	1	2.01588
    200	6000	1000
    2.93283 0.000826598 -1.46401e-07 1.54099e-11 -6.88796e-16 -813.056 -1.02432 
    2.3443 0.00798042 -1.94779e-05 2.0157e-08 -7.37603e-12 -917.924 0.683002 
;
oxidant 	1	28.8504
    200	6000	1000
    3.10131 0.00124137 -4.18816e-07 6.64158e-11 -3.91274e-15 -985.266 5.35597 
    3.58378 -0.000727005 1.67057e-06 -1.09203e-10 -4.31765e-13 -1050.53 3.11239 
;
reactants 	1	27.5628
    200	6000	1000
    3.09323 0.00122147 -4.05745e-07 6.39685e-11 -3.75805e-15 -977.003 5.04983 
    3.5243 -0.000309208 6.55828e-07 8.63202e-10 -7.64963e-13 -1044.17 2.99582 
;
burntProducts 	1	24.543
    200	6000	1000
    2.85691 0.00194403 -5.90213e-07 8.4096e-11 -4.49e-15 -10976.8 6.22265 
    3.76272 -0.000787587 1.93486e-06 -3.14926e-10 -3.04729e-13 -11198.7 1.64272 
;
products 	1	28.2403
    200	6000	1000
    3.06669 0.00134089 -4.43091e-07 6.89199e-11 -3.9945e-15 -2400.38 5.47872 
    3.60912 -0.000735585 1.708e-06 -1.3834e-10 -4.13773e-13 -2487.83 2.90424 
;
Tad = 693.453

phi = 0.13
ft = 0.0038006
fuel fuel	1	2.01588
    200	6000	1000
    2.93283 0.000826598 -1.46401e-07 1.54099e-11 -6.88796e-16 -813.056 -1.02432 
    2.3443 0.00798042 -1.94779e-05 2.0157e-08 -7.37603e-12 -917.924 0.683002 
;
oxidant 	1	28.8504
    200	6000	1000
    3.10131 0.00124137 -4.18816e-07 6.64158e-11 -3.91274e-15 -985.266 5.35597 
    3.58378 -0.000727005 1.67057e-06 -1.09203e-10 -4.31765e-13 -1050.53 3.11239 
;
reactants 	1	27.4611
    200	6000	1000
    3.09259 0.0012199 -4.04712e-07 6.37751e-11 -3.74583e-15 -976.35 5.02564 
    3.5196 -0.000276194 5.75644e-07 9.40041e-10 -7.91292e-13 -1043.66 2.98661 
;
burntProducts 	1	24.543
    200	6000	1000
    2.85691 0.00194403 -5.90213e-07 8.4096e-11 -4.49e-15 -10976.8 6.22265 
    3.76272 -0.000787587 1.93486e-06 -3.14926e-10 -3.04729e-13 -11198.7 1.64272 
;
products 	1	28.1909
    200	6000	1000
    3.06389 0.00134897 -4.4506e-07 6.9123e-11 -4.00113e-15 -2515.18 5.48867 
    3.61118 -0.000736281 1.71104e-06 -1.40704e-10 -4.12314e-13 -2604.42 2.88735 
;
Tad = 723.785

phi = 0.14
ft = 0.00409175
fuel fuel	1	2.01588
    200	6000	1000
    2.93283 0.000826598 -1.46401e-07 1.54099e-11 -6.88796e-16 -813.056 -1.02432 
    2.3443 0.00798042 -1.94779e-05 2.0157e-08 -7.37603e-12 -917.924 0.683002 
;
oxidant 	1	28.8504
    200	6000	1000
    3.10131 0.00124137 -4.18816e-07 6.64158e-11 -3.91274e-15 -985.266 5.35597 
    3.58378 -0.000727005 1.67057e-06 -1.09203e-10 -4.31765e-13 -1050.53 3.11239 
;
reactants 	1	27.3602
    200	6000	1000
    3.09195 0.00121834 -4.03687e-07 6.35832e-11 -3.7337e-15 -975.702 5.00164 
    3.51494 -0.000243442 4.96097e-07 1.01627e-09 -8.17412e-13 -1043.17 2.97747 
;
burntProducts 	1	24.543
    200	6000	1000
    2.85691 0.00194403 -5.90213e-07 8.4096e-11 -4.49e-15 -10976.8 6.22265 
    3.76272 -0.000787587 1.93486e-06 -3.14926e-10 -3.04729e-13 -11198.7 1.64272 
;
products 	1	28.1416
    200	6000	1000
    3.06109 0.001357 -4.47021e-07 6.93253e-11 -4.00774e-15 -2629.5 5.49859 
    3.61322 -0.000736975 1.71406e-06 -1.43057e-10 -4.1086e-13 -2720.54 2.87054 
;
Tad = 753.739

phi = 0.15
ft = 0.00438274
fuel fuel	1	2.01588
    200	6000	1000
    2.93283 0.000826598 -1.46401e-07 1.54099e-11 -6.88796e-16 -813.056 -1.02432 
    2.3443 0.00798042 -1.94779e-05 2.0157e-08 -7.37603e-12 -917.924 0.683002 
;
oxidant 	1	28.8504
    200	6000	1000
    3.10131 0.00124137 -4.18816e-07 6.64158e-11 -3.91274e-15 -985.266 5.35597 
    3.58378 -0.000727005 1.67057e-06 -1.09203e-10 -4.31765e-13 -1050.53 3.11239 
;
reactants 	1	27.26
    200	6000	1000
    3.09132 0.00121679 -4.02671e-07 6.33929e-11 -3.72167e-15 -975.06 4.97783 
    3.51032 -0.000210949 4.17178e-07 1.0919e-09 -8.43326e-13 -1042.67 2.96841 
;
burntProducts 	1	24.543
    200	6000	1000
    2.85691 0.00194403 -5.90213e-07 8.4096e-11 -4.49e-15 -10976.8 6.22265 
    3.76272 -0.000787587 1.93486e-06 -3.14926e-10 -3.04729e-13 -11198.7 1.64272 
;
products 	1	28.0925
    200	6000	1000
    3.05831 0.00136501 -4.48974e-07 6.95268e-11 -4.01431e-15 -2743.36 5.50847 
    3.61526 -0.000737665 1.71707e-06 -1.45402e-10 -4.09412e-13 -2836.18 2.85379 
;
Tad = 783.322

phi = 0.16
ft = 0.00467356
fuel fuel	1	2.01588
    200	6000	1000
    2.93283 0.000826598 -1.46401e-07 1.54099e-11 -6.88796e-16 -813.056 -1.02432 
    2.3443 0.00798042 -1.94779e-05 2.0157e-08 -7.37603e-12 -917.924 0.683002 
;
oxidant 	1	28.8504
    200	6000	1000
    3.10131 0.00124137 -4.18816e-07 6.64158e-11 -3.91274e-15 -985.266 5.35597 
    3.58378 -0.000727005 1.67057e-06 -1.09203e-10 -4.31765e-13 -1050.53 3.11239 
;
reactants 	1	27.1607
    200	6000	1000
    3.0907 0.00121526 -4.01662e-07 6.32041e-11 -3.70973e-15 -974.422 4.95421 
    3.50573 -0.000178711 3.3888e-07 1.16693e-09 -8.69035e-13 -1042.18 2.95941 
;
burntProducts 	1	24.543
    200	6000	1000
    2.85691 0.00194403 -5.90213e-07 8.4096e-11 -4.49e-15 -10976.8 6.22265 
    3.76272 -0.000787587 1.93486e-06 -3.14926e-10 -3.04729e-13 -11198.7 1.64272 
;
products 	1	28.0436
    200	6000	1000
    3.05553 0.00137299 -4.5092e-07 6.97274e-11 -4.02087e-15 -2856.75 5.5183 
    3.61729 -0.000738352 1.72007e-06 -1.47737e-10 -4.07971e-13 -2951.35 2.83711 
;
Tad = 812.543

phi = 0.17
ft = 0.00496421
fuel fuel	1	2.01588
    200	6000	1000
    2.93283 0.000826598 -1.46401e-07 1.54099e-11 -6.88796e-16 -813.056 -1.02432 
    2.3443 0.00798042 -1.94779e-05 2.0157e-08 -7.37603e-12 -917.924 0.683002 
;
oxidant 	1	28.8504
    200	6000	1000
    3.10131 0.00124137 -4.18816e-07 6.64158e-11 -3.91274e-15 -985.266 5.35597 
    3.58378 -0.000727005 1.67057e-06 -1.09203e-10 -4.31765e-13 -1050.53 3.11239 
;
reactants 	1	27.0621
    200	6000	1000
    3.09008 0.00121373 -4.00662e-07 6.30167e-11 -3.69789e-15 -973.789 4.93077 
    3.50118 -0.000146727 2.61196e-07 1.24137e-09 -8.94543e-13 -1041.69 2.95049 
;
burntProducts 	1	24.543
    200	6000	1000
    2.85691 0.00194403 -5.90213e-07 8.4096e-11 -4.49e-15 -10976.8 6.22265 
    3.76272 -0.000787587 1.93486e-06 -3.14926e-10 -3.04729e-13 -11198.7 1.64272 
;
products 	1	27.9949
    200	6000	1000
    3.05277 0.00138093 -4.52857e-07 6.99273e-11 -4.02739e-15 -2969.69 5.5281 
    3.61932 -0.000739037 1.72306e-06 -1.50062e-10 -4.06535e-13 -3066.06 2.8205 
;
Tad = 841.412

phi = 0.18
ft = 0.00525468
fuel fuel	1	2.01588
    200	6000	1000
    2.93283 0.000826598 -1.46401e-07 1.54099e-11 -6.88796e-16 -813.056 -1.02432 
    2.3443 0.00798042 -1.94779e-05 2.0157e-08 -7.37603e-12 -917.924 0.683002 
;
oxidant 	1	28.8504
    200	6000	1000
    3.10131 0.00124137 -4.18816e-07 6.64158e-11 -3.91274e-15 -985.266 5.35597 
    3.58378 -0.000727005 1.67057e-06 -1.09203e-10 -4.31765e-13 -1050.53 3.11239 
;
reactants 	1	26.9643
    200	6000	1000
    3.08947 0.00121222 -3.99669e-07 6.28308e-11 -3.68614e-15 -973.162 4.90752 
    3.49666 -0.000114992 1.84119e-07 1.31523e-09 -9.19852e-13 -1041.21 2.94164 
;
burntProducts 	1	24.543
    200	6000	1000
    2.85691 0.00194403 -5.90213e-07 8.4096e-11 -4.49e-15 -10976.8 6.22265 
    3.76272 -0.000787587 1.93486e-06 -3.14926e-10 -3.04729e-13 -11198.7 1.64272 
;
products 	1	27.9464
    200	6000	1000
    3.05002 0.00138884 -4.54786e-07 7.01263e-11 -4.03389e-15 -3082.17 5.53785 
    3.62133 -0.000739719 1.72603e-06 -1.52378e-10 -4.05105e-13 -3180.3 2.80395 
;
Tad = 869.938

phi = 0.19
ft = 0.00554499
fuel fuel	1	2.01588
    200	6000	1000
    2.93283 0.000826598 -1.46401e-07 1.54099e-11 -6.88796e-16 -813.056 -1.02432 
    2.3443 0.00798042 -1.94779e-05 2.0157e-08 -7.37603e-12 -917.924 0.683002 
;
oxidant 	1	28.8504
    200	6000	1000
    3.10131 0.00124137 -4.18816e-07 6.64158e-11 -3.91274e-15 -985.266 5.35597 
    3.58378 -0.000727005 1.67057e-06 -1.09203e-10 -4.31765e-13 -1050.53 3.11239 
;
reactants 	1	26.8673
    200	6000	1000
    3.08886 0.00121072 -3.98684e-07 6.26464e-11 -3.67448e-15 -972.539 4.88445 
    3.49218 -8.35037e-05 1.07641e-07 1.38852e-09 -9.44964e-13 -1040.73 2.93285 
;
burntProducts 	1	24.543
    200	6000	1000
    2.85691 0.00194403 -5.90213e-07 8.4096e-11 -4.49e-15 -10976.8 6.22265 
    3.76272 -0.000787587 1.93486e-06 -3.14926e-10 -3.04729e-13 -11198.7 1.64272 
;
products 	1	27.8981
    200	6000	1000
    3.04728 0.00139672 -4.56708e-07 7.03245e-11 -4.04036e-15 -3194.19 5.54757 
    3.62334 -0.000740398 1.729e-06 -1.54684e-10 -4.0368e-13 -3294.08 2.78748 
;
Tad = 898.135

phi = 0.2
ft = 0.00583513
fuel fuel	1	2.01588
    200	6000	1000
    2.93283 0.000826598 -1.46401e-07 1.54099e-11 -6.88796e-16 -813.056 -1.02432 
    2.3443 0.00798042 -1.94779e-05 2.0157e-08 -7.37603e-12 -917.924 0.683002 
;
oxidant 	1	28.8504
    200	6000	1000
    3.10131 0.00124137 -4.18816e-07 6.64158e-11 -3.91274e-15 -985.266 5.35597 
    3.58378 -0.000727005 1.67057e-06 -1.09203e-10 -4.31765e-13 -1050.53 3.11239 
;
reactants 	1	26.771
    200	6000	1000
    3.08825 0.00120923 -3.97706e-07 6.24633e-11 -3.66292e-15 -971.921 4.86155 
    3.48773 -5.22597e-05 3.17561e-08 1.46124e-09 -9.69882e-13 -1040.25 2.92413 
;
burntProducts 	1	24.543
    200	6000	1000
    2.85691 0.00194403 -5.90213e-07 8.4096e-11 -4.49e-15 -10976.8 6.22265 
    3.76272 -0.000787587 1.93486e-06 -3.14926e-10 -3.04729e-13 -11198.7 1.64272 
;
products 	1	27.85
    200	6000	1000
    3.04455 0.00140456 -4.58622e-07 7.0522e-11 -4.04681e-15 -3305.77 5.55725 
    3.62533 -0.000741075 1.73195e-06 -1.56982e-10 -4.02262e-13 -3407.41 2.77106 
;
Tad = 926.013

phi = 0.21
ft = 0.0061251
fuel fuel	1	2.01588
    200	6000	1000
    2.93283 0.000826598 -1.46401e-07 1.54099e-11 -6.88796e-16 -813.056 -1.02432 
    2.3443 0.00798042 -1.94779e-05 2.0157e-08 -7.37603e-12 -917.924 0.683002 
;
oxidant 	1	28.8504
    200	6000	1000
    3.10131 0.00124137 -4.18816e-07 6.64158e-11 -3.91274e-15 -985.266 5.35597 
    3.58378 -0.000727005 1.67057e-06 -1.09203e-10 -4.31765e-13 -1050.53 3.11239 
;
reactants 	1	26.6754
    200	6000	1000
    3.08765 0.00120776 -3.96736e-07 6.22817e-11 -3.65144e-15 -971.308 4.83884 
    3.48332 -2.12568e-05 -4.35431e-08 1.5334e-09 -9.94607e-13 -1039.78 2.91548 
;
burntProducts 	1	24.543
    200	6000	1000
    2.85691 0.00194403 -5.90213e-07 8.4096e-11 -4.49e-15 -10976.8 6.22265 
    3.76272 -0.000787587 1.93486e-06 -3.14926e-10 -3.04729e-13 -11198.7 1.64272 
;
products 	1	27.8021
    200	6000	1000
    3.04183 0.00141238 -4.60528e-07 7.07186e-11 -4.05323e-15 -3416.89 5.56689 
    3.62732 -0.000741749 1.73489e-06 -1.5927e-10 -4.00849e-13 -3520.27 2.75472 
;
Tad = 953.585

phi = 0.22
ft = 0.0064149
fuel fuel	1	2.01588
    200	6000	1000
    2.93283 0.000826598 -1.46401e-07 1.54099e-11 -6.88796e-16 -813.056 -1.02432 
    2.3443 0.00798042 -1.94779e-05 2.0157e-08 -7.37603e-12 -917.924 0.683002 
;
oxidant 	1	28.8504
    200	6000	1000
    3.10131 0.00124137 -4.18816e-07 6.64158e-11 -3.91274e-15 -985.266 5.35597 
    3.58378 -0.000727005 1.67057e-06 -1.09203e-10 -4.31765e-13 -1050.53 3.11239 
;
reactants 	1	26.5806
    200	6000	1000
    3.08706 0.00120629 -3.95774e-07 6.21015e-11 -3.64005e-15 -970.7 4.81629 
    3.47894 9.50758e-06 -1.18263e-07 1.605e-09 -1.01914e-12 -1039.31 2.9069 
;
burntProducts 	1	24.543
    200	6000	1000
    2.85691 0.00194403 -5.90213e-07 8.4096e-11 -4.49e-15 -10976.8 6.22265 
    3.76272 -0.000787587 1.93486e-06 -3.14926e-10 -3.04729e-13 -11198.7 1.64272 
;
products 	1	27.7544
    200	6000	1000
    3.03912 0.00142016 -4.62427e-07 7.09144e-11 -4.05962e-15 -3527.57 5.57649 
    3.62931 -0.00074242 1.73782e-06 -1.61548e-10 -3.99442e-13 -3632.69 2.73844 
;
Tad = 980.865

phi = 0.23
ft = 0.00670453
fuel fuel	1	2.01588
    200	6000	1000
    2.93283 0.000826598 -1.46401e-07 1.54099e-11 -6.88796e-16 -813.056 -1.02432 
    2.3443 0.00798042 -1.94779e-05 2.0157e-08 -7.37603e-12 -917.924 0.683002 
;
oxidant 	1	28.8504
    200	6000	1000
    3.10131 0.00124137 -4.18816e-07 6.64158e-11 -3.91274e-15 -985.266 5.35597 
    3.58378 -0.000727005 1.67057e-06 -1.09203e-10 -4.31765e-13 -1050.53 3.11239 
;
reactants 	1	26.4865
    200	6000	1000
    3.08647 0.00120484 -3.94819e-07 6.19227e-11 -3.62874e-15 -970.096 4.79392 
    3.47459 4.00364e-05 -1.92411e-07 1.67605e-09 -1.04349e-12 -1038.85 2.89838 
;
burntProducts 	1	24.543
    200	6000	1000
    2.85691 0.00194403 -5.90213e-07 8.4096e-11 -4.49e-15 -10976.8 6.22265 
    3.76272 -0.000787587 1.93486e-06 -3.14926e-10 -3.04729e-13 -11198.7 1.64272 
;
products 	1	27.7069
    200	6000	1000
    3.03643 0.00142791 -4.64318e-07 7.11095e-11 -4.06599e-15 -3637.81 5.58605 
    3.63128 -0.000743088 1.74073e-06 -1.63818e-10 -3.9804e-13 -3744.65 2.72223 
;
Tad = 1007.87

phi = 0.24
ft = 0.00699399
fuel fuel	1	2.01588
    200	6000	1000
    2.93283 0.000826598 -1.46401e-07 1.54099e-11 -6.88796e-16 -813.056 -1.02432 
    2.3443 0.00798042 -1.94779e-05 2.0157e-08 -7.37603e-12 -917.924 0.683002 
;
oxidant 	1	28.8504
    200	6000	1000
    3.10131 0.00124137 -4.18816e-07 6.64158e-11 -3.91274e-15 -985.266 5.35597 
    3.58378 -0.000727005 1.67057e-06 -1.09203e-10 -4.31765e-13 -1050.53 3.11239 
;
reactants 	1	26.3932
    200	6000	1000
    3.08588 0.00120339 -3.93871e-07 6.17452e-11 -3.61753e-15 -969.497 4.77172 
    3.47028 7.03322e-05 -2.65993e-07 1.74657e-09 -1.06765e-12 -1038.39 2.88993 
;
burntProducts 	1	24.543
    200	6000	1000
    2.85691 0.00194403 -5.90213e-07 8.4096e-11 -4.49e-15 -10976.8 6.22265 
    3.76272 -0.000787587 1.93486e-06 -3.14926e-10 -3.04729e-13 -11198.7 1.64272 
;
products 	1	27.6596
    200	6000	1000
    3.03374 0.00143563 -4.66201e-07 7.13038e-11 -4.07233e-15 -3747.6 5.59558 
    3.63325 -0.000743754 1.74364e-06 -1.66079e-10 -3.96644e-13 -3856.16 2.70608 
;
Tad = 1034.59

phi = 0.25
ft = 0.00728329
fuel fuel	1	2.01588
    200	6000	1000
    2.93283 0.000826598 -1.46401e-07 1.54099e-11 -6.88796e-16 -813.056 -1.02432 
    2.3443 0.00798042 -1.94779e-05 2.0157e-08 -7.37603e-12 -917.924 0.683002 
;
oxidant 	1	28.8504
    200	6000	1000
    3.10131 0.00124137 -4.18816e-07 6.64158e-11 -3.91274e-15 -985.266 5.35597 
    3.58378 -0.000727005 1.67057e-06 -1.09203e-10 -4.31765e-13 -1050.53 3.11239 
;
reactants 	1	26.3005
    200	6000	1000
    3.0853 0.00120196 -3.9293e-07 6.15691e-11 -3.60639e-15 -968.902 4.74969 
    3.466 0.000100398 -3.39016e-07 1.81654e-09 -1.09163e-12 -1037.93 2.88154 
;
burntProducts 	1	24.543
    200	6000	1000
    2.85691 0.00194403 -5.90213e-07 8.4096e-11 -4.49e-15 -10976.8 6.22265 
    3.76272 -0.000787587 1.93486e-06 -3.14926e-10 -3.04729e-13 -11198.7 1.64272 
;
products 	1	27.6124
    200	6000	1000
    3.03107 0.00144333 -4.68077e-07 7.14973e-11 -4.07865e-15 -3856.96 5.60506 
    3.63521 -0.000744417 1.74653e-06 -1.6833e-10 -3.95254e-13 -3967.23 2.68999 
;
Tad = 1061.05

phi = 0.26
ft = 0.00757241
fuel fuel	1	2.01588
    200	6000	1000
    2.93283 0.000826598 -1.46401e-07 1.54099e-11 -6.88796e-16 -813.056 -1.02432 
    2.3443 0.00798042 -1.94779e-05 2.0157e-08 -7.37603e-12 -917.924 0.683002 
;
oxidant 	1	28.8504
    200	6000	1000
    3.10131 0.00124137 -4.18816e-07 6.64158e-11 -3.91274e-15 -985.266 5.35597 
    3.58378 -0.000727005 1.67057e-06 -1.09203e-10 -4.31765e-13 -1050.53 3.11239 
;
reactants 	1	26.2086
    200	6000	1000
    3.08472 0.00120054 -3.91997e-07 6.13943e-11 -3.59535e-15 -968.312 4.72783 
    3.46175 0.000130236 -4.11486e-07 1.88599e-09 -1.11542e-12 -1037.47 2.87322 
;
burntProducts 	1	24.543
    200	6000	1000
    2.85691 0.00194403 -5.90213e-07 8.4096e-11 -4.49e-15 -10976.8 6.22265 
    3.76272 -0.000787587 1.93486e-06 -3.14926e-10 -3.04729e-13 -11198.7 1.64272 
;
products 	1	27.5655
    200	6000	1000
    3.0284 0.00145099 -4.69946e-07 7.169e-11 -4.08495e-15 -3965.88 5.61451 
    3.63716 -0.000745077 1.74941e-06 -1.70573e-10 -3.93869e-13 -4077.86 2.67397 
;
Tad = 1087.25

phi = 0.27
ft = 0.00786137
fuel fuel	1	2.01588
    200	6000	1000
    2.93283 0.000826598 -1.46401e-07 1.54099e-11 -6.88796e-16 -813.056 -1.02432 
    2.3443 0.00798042 -1.94779e-05 2.0157e-08 -7.37603e-12 -917.924 0.683002 
;
oxidant 	1	28.8504
    200	6000	1000
    3.10131 0.00124137 -4.18816e-07 6.64158e-11 -3.91274e-15 -985.266 5.35597 
    3.58378 -0.000727005 1.67057e-06 -1.09203e-10 -4.31765e-13 -1050.53 3.11239 
;
reactants 	1	26.1173
    200	6000	1000
    3.08415 0.00119913 -3.9107e-07 6.12209e-11 -3.58438e-15 -967.726 4.70613 
    3.45754 0.000159848 -4.83409e-07 1.95491e-09 -1.13904e-12 -1037.02 2.86496 
;
burntProducts 	1	24.543
    200	6000	1000
    2.85691 0.00194403 -5.90213e-07 8.4096e-11 -4.49e-15 -10976.8 6.22265 
    3.76272 -0.000787587 1.93486e-06 -3.14926e-10 -3.04729e-13 -11198.7 1.64272 
;
products 	1	27.5187
    200	6000	1000
    3.02575 0.00145861 -4.71807e-07 7.1882e-11 -4.09121e-15 -4074.36 5.62392 
    3.6391 -0.000745735 1.75228e-06 -1.72807e-10 -3.92489e-13 -4188.05 2.65801 
;
Tad = 1113.18

phi = 0.28
ft = 0.00815016
fuel fuel	1	2.01588
    200	6000	1000
    2.93283 0.000826598 -1.46401e-07 1.54099e-11 -6.88796e-16 -813.056 -1.02432 
    2.3443 0.00798042 -1.94779e-05 2.0157e-08 -7.37603e-12 -917.924 0.683002 
;
oxidant 	1	28.8504
    200	6000	1000
    3.10131 0.00124137 -4.18816e-07 6.64158e-11 -3.91274e-15 -985.266 5.35597 
    3.58378 -0.000727005 1.67057e-06 -1.09203e-10 -4.31765e-13 -1050.53 3.11239 
;
reactants 	1	26.0267
    200	6000	1000
    3.08358 0.00119773 -3.90151e-07 6.10487e-11 -3.5735e-15 -967.145 4.6846 
    3.45335 0.000189238 -5.54791e-07 2.02331e-09 -1.16248e-12 -1036.58 2.85676 
;
burntProducts 	1	24.543
    200	6000	1000
    2.85691 0.00194403 -5.90213e-07 8.4096e-11 -4.49e-15 -10976.8 6.22265 
    3.76272 -0.000787587 1.93486e-06 -3.14926e-10 -3.04729e-13 -11198.7 1.64272 
;
products 	1	27.4721
    200	6000	1000
    3.02311 0.00146621 -4.7366e-07 7.20732e-11 -4.09746e-15 -4182.42 5.63329 
    3.64103 -0.00074639 1.75514e-06 -1.75031e-10 -3.91116e-13 -4297.8 2.64212 
;
Tad = 1138.86

phi = 0.29
ft = 0.00843878
fuel fuel	1	2.01588
    200	6000	1000
    2.93283 0.000826598 -1.46401e-07 1.54099e-11 -6.88796e-16 -813.056 -1.02432 
    2.3443 0.00798042 -1.94779e-05 2.0157e-08 -7.37603e-12 -917.924 0.683002 
;
oxidant 	1	28.8504
    200	6000	1000
    3.10131 0.00124137 -4.18816e-07 6.64158e-11 -3.91274e-15 -985.266 5.35597 
    3.58378 -0.000727005 1.67057e-06 -1.09203e-10 -4.31765e-13 -1050.53 3.11239 
;
reactants 	1	25.9368
    200	6000	1000
    3.08302 0.00119634 -3.89238e-07 6.08778e-11 -3.5627e-15 -966.568 4.66322 
    3.4492 0.000218408 -6.25639e-07 2.09121e-09 -1.18574e-12 -1036.13 2.84862 
;
burntProducts 	1	24.543
    200	6000	1000
    2.85691 0.00194403 -5.90213e-07 8.4096e-11 -4.49e-15 -10976.8 6.22265 
    3.76272 -0.000787587 1.93486e-06 -3.14926e-10 -3.04729e-13 -11198.7 1.64272 
;
products 	1	27.4257
    200	6000	1000
    3.02047 0.00147378 -4.75506e-07 7.22637e-11 -4.10367e-15 -4290.05 5.64263 
    3.64296 -0.000747043 1.75798e-06 -1.77248e-10 -3.89747e-13 -4407.12 2.62629 
;
Tad = 1164.29

phi = 0.3
ft = 0.00872723
fuel fuel	1	2.01588
    200	6000	1000
    2.93283 0.000826598 -1.46401e-07 1.54099e-11 -6.88796e-16 -813.056 -1.02432 
    2.3443 0.00798042 -1.94779e-05 2.0157e-08 -7.37603e-12 -917.924 0.683002 
;
oxidant 	1	28.8504
    200	6000	1000
    3.10131 0.00124137 -4.18816e-07 6.64158e-11 -3.91274e-15 -985.266 5.35597 
    3.58378 -0.000727005 1.67057e-06 -1.09203e-10 -4.31765e-13 -1050.53 3.11239 
;
reactants 	1	25.8476
    200	6000	1000
    3.08246 0.00119496 -3.88332e-07 6.07082e-11 -3.55198e-15 -965.995 4.64201 
    3.44508 0.000247361 -6.95958e-07 2.15859e-09 -1.20883e-12 -1035.69 2.84054 
;
burntProducts 	1	24.543
    200	6000	1000
    2.85691 0.00194403 -5.90213e-07 8.4096e-11 -4.49e-15 -10976.8 6.22265 
    3.76272 -0.000787587 1.93486e-06 -3.14926e-10 -3.04729e-13 -11198.7 1.64272 
;
products 	1	27.3795
    200	6000	1000
    3.01785 0.00148132 -4.77345e-07 7.24534e-11 -4.10987e-15 -4397.25 5.65193 
    3.64488 -0.000747693 1.76082e-06 -1.79455e-10 -3.88384e-13 -4516 2.61052 
;
Tad = 1189.48

phi = 0.31
ft = 0.00901552
fuel fuel	1	2.01588
    200	6000	1000
    2.93283 0.000826598 -1.46401e-07 1.54099e-11 -6.88796e-16 -813.056 -1.02432 
    2.3443 0.00798042 -1.94779e-05 2.0157e-08 -7.37603e-12 -917.924 0.683002 
;
oxidant 	1	28.8504
    200	6000	1000
    3.10131 0.00124137 -4.18816e-07 6.64158e-11 -3.91274e-15 -985.266 5.35597 
    3.58378 -0.000727005 1.67057e-06 -1.09203e-10 -4.31765e-13 -1050.53 3.11239 
;
reactants 	1	25.759
    200	6000	1000
    3.0819 0.00119359 -3.87433e-07 6.05399e-11 -3.54134e-15 -965.427 4.62095 
    3.44099 0.000276098 -7.65755e-07 2.22548e-09 -1.23175e-12 -1035.25 2.83252 
;
burntProducts 	1	24.543
    200	6000	1000
    2.85691 0.00194403 -5.90213e-07 8.4096e-11 -4.49e-15 -10976.8 6.22265 
    3.76272 -0.000787587 1.93486e-06 -3.14926e-10 -3.04729e-13 -11198.7 1.64272 
;
products 	1	27.3335
    200	6000	1000
    3.01524 0.00148883 -4.79177e-07 7.26423e-11 -4.11604e-15 -4504.04 5.66119 
    3.64679 -0.00074834 1.76364e-06 -1.81653e-10 -3.87026e-13 -4624.46 2.59481 
;
Tad = 1214.43

phi = 0.32
ft = 0.00930364
fuel fuel	1	2.01588
    200	6000	1000
    2.93283 0.000826598 -1.46401e-07 1.54099e-11 -6.88796e-16 -813.056 -1.02432 
    2.3443 0.00798042 -1.94779e-05 2.0157e-08 -7.37603e-12 -917.924 0.683002 
;
oxidant 	1	28.8504
    200	6000	1000
    3.10131 0.00124137 -4.18816e-07 6.64158e-11 -3.91274e-15 -985.266 5.35597 
    3.58378 -0.000727005 1.67057e-06 -1.09203e-10 -4.31765e-13 -1050.53 3.11239 
;
reactants 	1	25.6711
    200	6000	1000
    3.08135 0.00119223 -3.86541e-07 6.03728e-11 -3.53078e-15 -964.863 4.60005 
    3.43693 0.000304623 -8.35035e-07 2.29187e-09 -1.2545e-12 -1034.82 2.82456 
;
burntProducts 	1	24.543
    200	6000	1000
    2.85691 0.00194403 -5.90213e-07 8.4096e-11 -4.49e-15 -10976.8 6.22265 
    3.76272 -0.000787587 1.93486e-06 -3.14926e-10 -3.04729e-13 -11198.7 1.64272 
;
products 	1	27.2876
    200	6000	1000
    3.01264 0.00149631 -4.81002e-07 7.28305e-11 -4.12218e-15 -4610.4 5.67042 
    3.6487 -0.000748985 1.76646e-06 -1.83843e-10 -3.85674e-13 -4732.49 2.57917 
;
Tad = 1239.14

phi = 0.33
ft = 0.00959159
fuel fuel	1	2.01588
    200	6000	1000
    2.93283 0.000826598 -1.46401e-07 1.54099e-11 -6.88796e-16 -813.056 -1.02432 
    2.3443 0.00798042 -1.94779e-05 2.0157e-08 -7.37603e-12 -917.924 0.683002 
;
oxidant 	1	28.8504
    200	6000	1000
    3.10131 0.00124137 -4.18816e-07 6.64158e-11 -3.91274e-15 -985.266 5.35597 
    3.58378 -0.000727005 1.67057e-06 -1.09203e-10 -4.31765e-13 -1050.53 3.11239 
;
reactants 	1	25.5839
    200	6000	1000
    3.0808 0.00119088 -3.85655e-07 6.02069e-11 -3.5203e-15 -964.303 4.5793 
    3.4329 0.000332937 -9.03803e-07 2.35777e-09 -1.27708e-12 -1034.39 2.81666 
;
burntProducts 	1	24.543
    200	6000	1000
    2.85691 0.00194403 -5.90213e-07 8.4096e-11 -4.49e-15 -10976.8 6.22265 
    3.76272 -0.000787587 1.93486e-06 -3.14926e-10 -3.04729e-13 -11198.7 1.64272 
;
products 	1	27.2419
    200	6000	1000
    3.01005 0.00150376 -4.82819e-07 7.3018e-11 -4.1283e-15 -4716.34 5.67961 
    3.6506 -0.000749628 1.76926e-06 -1.86025e-10 -3.84327e-13 -4840.09 2.56358 
;
Tad = 1263.61

phi = 0.34
ft = 0.00987937
fuel fuel	1	2.01588
    200	6000	1000
    2.93283 0.000826598 -1.46401e-07 1.54099e-11 -6.88796e-16 -813.056 -1.02432 
    2.3443 0.00798042 -1.94779e-05 2.0157e-08 -7.37603e-12 -917.924 0.683002 
;
oxidant 	1	28.8504
    200	6000	1000
    3.10131 0.00124137 -4.18816e-07 6.64158e-11 -3.91274e-15 -985.266 5.35597 
    3.58378 -0.000727005 1.67057e-06 -1.09203e-10 -4.31765e-13 -1050.53 3.11239 
;
reactants 	1	25.4973
    200	6000	1000
    3.08026 0.00118955 -3.84776e-07 6.00423e-11 -3.50989e-15 -963.747 4.55871 
    3.4289 0.000361043 -9.72067e-07 2.42318e-09 -1.29949e-12 -1033.96 2.80882 
;
burntProducts 	1	24.543
    200	6000	1000
    2.85691 0.00194403 -5.90213e-07 8.4096e-11 -4.49e-15 -10976.8 6.22265 
    3.76272 -0.000787587 1.93486e-06 -3.14926e-10 -3.04729e-13 -11198.7 1.64272 
;
products 	1	27.1964
    200	6000	1000
    3.00746 0.00151118 -4.84629e-07 7.32047e-11 -4.1344e-15 -4821.87 5.68876 
    3.65249 -0.000750267 1.77205e-06 -1.88197e-10 -3.82985e-13 -4947.27 2.54806 
;
Tad = 1287.87

phi = 0.35
ft = 0.010167
fuel fuel	1	2.01588
    200	6000	1000
    2.93283 0.000826598 -1.46401e-07 1.54099e-11 -6.88796e-16 -813.056 -1.02432 
    2.3443 0.00798042 -1.94779e-05 2.0157e-08 -7.37603e-12 -917.924 0.683002 
;
oxidant 	1	28.8504
    200	6000	1000
    3.10131 0.00124137 -4.18816e-07 6.64158e-11 -3.91274e-15 -985.266 5.35597 
    3.58378 -0.000727005 1.67057e-06 -1.09203e-10 -4.31765e-13 -1050.53 3.11239 
;
reactants 	1	25.4113
    200	6000	1000
    3.07972 0.00118822 -3.83903e-07 5.98789e-11 -3.49956e-15 -963.195 4.53827 
    3.42493 0.000388943 -1.03983e-06 2.48812e-09 -1.32175e-12 -1033.53 2.80104 
;
burntProducts 	1	24.543
    200	6000	1000
    2.85691 0.00194403 -5.90213e-07 8.4096e-11 -4.49e-15 -10976.8 6.22265 
    3.76272 -0.000787587 1.93486e-06 -3.14926e-10 -3.04729e-13 -11198.7 1.64272 
;
products 	1	27.1511
    200	6000	1000
    3.00489 0.00151857 -4.86433e-07 7.33907e-11 -4.14047e-15 -4926.98 5.69788 
    3.65437 -0.000750905 1.77483e-06 -1.90362e-10 -3.81649e-13 -5054.04 2.5326 
;
Tad = 1311.89

phi = 0.36
ft = 0.0104544
fuel fuel	1	2.01588
    200	6000	1000
    2.93283 0.000826598 -1.46401e-07 1.54099e-11 -6.88796e-16 -813.056 -1.02432 
    2.3443 0.00798042 -1.94779e-05 2.0157e-08 -7.37603e-12 -917.924 0.683002 
;
oxidant 	1	28.8504
    200	6000	1000
    3.10131 0.00124137 -4.18816e-07 6.64158e-11 -3.91274e-15 -985.266 5.35597 
    3.58378 -0.000727005 1.67057e-06 -1.09203e-10 -4.31765e-13 -1050.53 3.11239 
;
reactants 	1	25.3259
    200	6000	1000
    3.07918 0.0011869 -3.83036e-07 5.97166e-11 -3.4893e-15 -962.648 4.51797 
    3.42098 0.000416639 -1.1071e-06 2.55258e-09 -1.34383e-12 -1033.11 2.79331 
;
burntProducts 	1	24.543
    200	6000	1000
    2.85691 0.00194403 -5.90213e-07 8.4096e-11 -4.49e-15 -10976.8 6.22265 
    3.76272 -0.000787587 1.93486e-06 -3.14926e-10 -3.04729e-13 -11198.7 1.64272 
;
products 	1	27.106
    200	6000	1000
    3.00233 0.00152594 -4.88229e-07 7.3576e-11 -4.14652e-15 -5031.69 5.70696 
    3.65624 -0.00075154 1.7776e-06 -1.92518e-10 -3.80318e-13 -5160.38 2.5172 
;
Tad = 1335.7

phi = 0.37
ft = 0.0107417
fuel fuel	1	2.01588
    200	6000	1000
    2.93283 0.000826598 -1.46401e-07 1.54099e-11 -6.88796e-16 -813.056 -1.02432 
    2.3443 0.00798042 -1.94779e-05 2.0157e-08 -7.37603e-12 -917.924 0.683002 
;
oxidant 	1	28.8504
    200	6000	1000
    3.10131 0.00124137 -4.18816e-07 6.64158e-11 -3.91274e-15 -985.266 5.35597 
    3.58378 -0.000727005 1.67057e-06 -1.09203e-10 -4.31765e-13 -1050.53 3.11239 
;
reactants 	1	25.2412
    200	6000	1000
    3.07865 0.00118559 -3.82176e-07 5.95556e-11 -3.47912e-15 -962.104 4.49782 
    3.41707 0.000444134 -1.17388e-06 2.61657e-09 -1.36576e-12 -1032.69 2.78564 
;
burntProducts 	1	24.543
    200	6000	1000
    2.85691 0.00194403 -5.90213e-07 8.4096e-11 -4.49e-15 -10976.8 6.22265 
    3.76272 -0.000787587 1.93486e-06 -3.14926e-10 -3.04729e-13 -11198.7 1.64272 
;
products 	1	27.061
    200	6000	1000
    2.99978 0.00153327 -4.90018e-07 7.37605e-11 -4.15255e-15 -5135.99 5.71601 
    3.65811 -0.000752172 1.78036e-06 -1.94665e-10 -3.78992e-13 -5266.31 2.50186 
;
Tad = 1359.29

phi = 0.38
ft = 0.0110288
fuel fuel	1	2.01588
    200	6000	1000
    2.93283 0.000826598 -1.46401e-07 1.54099e-11 -6.88796e-16 -813.056 -1.02432 
    2.3443 0.00798042 -1.94779e-05 2.0157e-08 -7.37603e-12 -917.924 0.683002 
;
oxidant 	1	28.8504
    200	6000	1000
    3.10131 0.00124137 -4.18816e-07 6.64158e-11 -3.91274e-15 -985.266 5.35597 
    3.58378 -0.000727005 1.67057e-06 -1.09203e-10 -4.31765e-13 -1050.53 3.11239 
;
reactants 	1	25.1571
    200	6000	1000
    3.07812 0.00118429 -3.81322e-07 5.93957e-11 -3.46902e-15 -961.564 4.47782 
    3.41318 0.00047143 -1.24017e-06 2.6801e-09 -1.38753e-12 -1032.28 2.77802 
;
burntProducts 	1	24.543
    200	6000	1000
    2.85691 0.00194403 -5.90213e-07 8.4096e-11 -4.49e-15 -10976.8 6.22265 
    3.76272 -0.000787587 1.93486e-06 -3.14926e-10 -3.04729e-13 -11198.7 1.64272 
;
products 	1	27.0162
    200	6000	1000
    2.99724 0.00154058 -4.918e-07 7.39444e-11 -4.15855e-15 -5239.88 5.72502 
    3.65997 -0.000752802 1.78311e-06 -1.96804e-10 -3.77671e-13 -5371.83 2.48658 
;
Tad = 1382.67

phi = 0.39
ft = 0.0113158
fuel fuel	1	2.01588
    200	6000	1000
    2.93283 0.000826598 -1.46401e-07 1.54099e-11 -6.88796e-16 -813.056 -1.02432 
    2.3443 0.00798042 -1.94779e-05 2.0157e-08 -7.37603e-12 -917.924 0.683002 
;
oxidant 	1	28.8504
    200	6000	1000
    3.10131 0.00124137 -4.18816e-07 6.64158e-11 -3.91274e-15 -985.266 5.35597 
    3.58378 -0.000727005 1.67057e-06 -1.09203e-10 -4.31765e-13 -1050.53 3.11239 
;
reactants 	1	25.0736
    200	6000	1000
    3.0776 0.001183 -3.80474e-07 5.92369e-11 -3.45898e-15 -961.028 4.45797 
    3.40933 0.000498529 -1.30599e-06 2.74318e-09 -1.40914e-12 -1031.87 2.77046 
;
burntProducts 	1	24.543
    200	6000	1000
    2.85691 0.00194403 -5.90213e-07 8.4096e-11 -4.49e-15 -10976.8 6.22265 
    3.76272 -0.000787587 1.93486e-06 -3.14926e-10 -3.04729e-13 -11198.7 1.64272 
;
products 	1	26.9716
    200	6000	1000
    2.99471 0.00154786 -4.93575e-07 7.41275e-11 -4.16453e-15 -5343.37 5.73399 
    3.66183 -0.000753429 1.78585e-06 -1.98935e-10 -3.76355e-13 -5476.94 2.47135 
;
Tad = 1405.84

phi = 0.4
ft = 0.0116026
fuel fuel	1	2.01588
    200	6000	1000
    2.93283 0.000826598 -1.46401e-07 1.54099e-11 -6.88796e-16 -813.056 -1.02432 
    2.3443 0.00798042 -1.94779e-05 2.0157e-08 -7.37603e-12 -917.924 0.683002 
;
oxidant 	1	28.8504
    200	6000	1000
    3.10131 0.00124137 -4.18816e-07 6.64158e-11 -3.91274e-15 -985.266 5.35597 
    3.58378 -0.000727005 1.67057e-06 -1.09203e-10 -4.31765e-13 -1050.53 3.11239 
;
reactants 	1	24.9906
    200	6000	1000
    3.07708 0.00118172 -3.79633e-07 5.90793e-11 -3.44902e-15 -960.496 4.43825 
    3.4055 0.000525433 -1.37134e-06 2.80579e-09 -1.4306e-12 -1031.46 2.76296 
;
burntProducts 	1	24.543
    200	6000	1000
    2.85691 0.00194403 -5.90213e-07 8.4096e-11 -4.49e-15 -10976.8 6.22265 
    3.76272 -0.000787587 1.93486e-06 -3.14926e-10 -3.04729e-13 -11198.7 1.64272 
;
products 	1	26.9272
    200	6000	1000
    2.99219 0.00155511 -4.95344e-07 7.43099e-11 -4.17049e-15 -5446.45 5.74294 
    3.66367 -0.000754054 1.78857e-06 -2.01057e-10 -3.75044e-13 -5581.65 2.45619 
;
Tad = 1428.8

phi = 0.41
ft = 0.0118892
fuel fuel	1	2.01588
    200	6000	1000
    2.93283 0.000826598 -1.46401e-07 1.54099e-11 -6.88796e-16 -813.056 -1.02432 
    2.3443 0.00798042 -1.94779e-05 2.0157e-08 -7.37603e-12 -917.924 0.683002 
;
oxidant 	1	28.8504
    200	6000	1000
    3.10131 0.00124137 -4.18816e-07 6.64158e-11 -3.91274e-15 -985.266 5.35597 
    3.58378 -0.000727005 1.67057e-06 -1.09203e-10 -4.31765e-13 -1050.53 3.11239 
;
reactants 	1	24.9083
    200	6000	1000
    3.07656 0.00118044 -3.78797e-07 5.89229e-11 -3.43913e-15 -959.968 4.41868 
    3.40169 0.000552145 -1.43621e-06 2.86796e-09 -1.4519e-12 -1031.05 2.7555 
;
burntProducts 	1	24.543
    200	6000	1000
    2.85691 0.00194403 -5.90213e-07 8.4096e-11 -4.49e-15 -10976.8 6.22265 
    3.76272 -0.000787587 1.93486e-06 -3.14926e-10 -3.04729e-13 -11198.7 1.64272 
;
products 	1	26.8829
    200	6000	1000
    2.98968 0.00156233 -4.97105e-07 7.44916e-11 -4.17642e-15 -5549.14 5.75184 
    3.66551 -0.000754677 1.79129e-06 -2.03172e-10 -3.73739e-13 -5685.94 2.44109 
;
Tad = 1451.56

phi = 0.42
ft = 0.0121756
fuel fuel	1	2.01588
    200	6000	1000
    2.93283 0.000826598 -1.46401e-07 1.54099e-11 -6.88796e-16 -813.056 -1.02432 
    2.3443 0.00798042 -1.94779e-05 2.0157e-08 -7.37603e-12 -917.924 0.683002 
;
oxidant 	1	28.8504
    200	6000	1000
    3.10131 0.00124137 -4.18816e-07 6.64158e-11 -3.91274e-15 -985.266 5.35597 
    3.58378 -0.000727005 1.67057e-06 -1.09203e-10 -4.31765e-13 -1050.53 3.11239 
;
reactants 	1	24.8266
    200	6000	1000
    3.07605 0.00117918 -3.77967e-07 5.87675e-11 -3.42931e-15 -959.443 4.39925 
    3.39792 0.000578665 -1.50063e-06 2.92969e-09 -1.47305e-12 -1030.65 2.7481 
;
burntProducts 	1	24.543
    200	6000	1000
    2.85691 0.00194403 -5.90213e-07 8.4096e-11 -4.49e-15 -10976.8 6.22265 
    3.76272 -0.000787587 1.93486e-06 -3.14926e-10 -3.04729e-13 -11198.7 1.64272 
;
products 	1	26.8388
    200	6000	1000
    2.98717 0.00156952 -4.9886e-07 7.46726e-11 -4.18233e-15 -5651.43 5.76072 
    3.66734 -0.000755297 1.79399e-06 -2.05278e-10 -3.72438e-13 -5789.84 2.42604 
;
Tad = 1474.12

phi = 0.43
ft = 0.0124619
fuel fuel	1	2.01588
    200	6000	1000
    2.93283 0.000826598 -1.46401e-07 1.54099e-11 -6.88796e-16 -813.056 -1.02432 
    2.3443 0.00798042 -1.94779e-05 2.0157e-08 -7.37603e-12 -917.924 0.683002 
;
oxidant 	1	28.8504
    200	6000	1000
    3.10131 0.00124137 -4.18816e-07 6.64158e-11 -3.91274e-15 -985.266 5.35597 
    3.58378 -0.000727005 1.67057e-06 -1.09203e-10 -4.31765e-13 -1050.53 3.11239 
;
reactants 	1	24.7454
    200	6000	1000
    3.07554 0.00117793 -3.77144e-07 5.86133e-11 -3.41956e-15 -958.922 4.37995 
    3.39417 0.000604997 -1.56458e-06 2.99097e-09 -1.49405e-12 -1030.24 2.74076 
;
burntProducts 	1	24.543
    200	6000	1000
    2.85691 0.00194403 -5.90213e-07 8.4096e-11 -4.49e-15 -10976.8 6.22265 
    3.76272 -0.000787587 1.93486e-06 -3.14926e-10 -3.04729e-13 -11198.7 1.64272 
;
products 	1	26.7949
    200	6000	1000
    2.98468 0.00157669 -5.00608e-07 7.48529e-11 -4.18821e-15 -5753.33 5.76956 
    3.66917 -0.000755915 1.79669e-06 -2.07376e-10 -3.71142e-13 -5893.33 2.41105 
;
Tad = 1496.49

phi = 0.44
ft = 0.012748
fuel fuel	1	2.01588
    200	6000	1000
    2.93283 0.000826598 -1.46401e-07 1.54099e-11 -6.88796e-16 -813.056 -1.02432 
    2.3443 0.00798042 -1.94779e-05 2.0157e-08 -7.37603e-12 -917.924 0.683002 
;
oxidant 	1	28.8504
    200	6000	1000
    3.10131 0.00124137 -4.18816e-07 6.64158e-11 -3.91274e-15 -985.266 5.35597 
    3.58378 -0.000727005 1.67057e-06 -1.09203e-10 -4.31765e-13 -1050.53 3.11239 
;
reactants 	1	24.6649
    200	6000	1000
    3.07503 0.00117668 -3.76326e-07 5.84601e-11 -3.40988e-15 -958.405 4.3608 
    3.39045 0.000631142 -1.62808e-06 3.05183e-09 -1.5149e-12 -1029.85 2.73346 
;
burntProducts 	1	24.543
    200	6000	1000
    2.85691 0.00194403 -5.90213e-07 8.4096e-11 -4.49e-15 -10976.8 6.22265 
    3.76272 -0.000787587 1.93486e-06 -3.14926e-10 -3.04729e-13 -11198.7 1.64272 
;
products 	1	26.7511
    200	6000	1000
    2.9822 0.00158383 -5.02349e-07 7.50326e-11 -4.19408e-15 -5854.84 5.77836 
    3.67099 -0.000756531 1.79937e-06 -2.09466e-10 -3.69852e-13 -5996.43 2.39612 
;
Tad = 1518.66

phi = 0.45
ft = 0.013034
fuel fuel	1	2.01588
    200	6000	1000
    2.93283 0.000826598 -1.46401e-07 1.54099e-11 -6.88796e-16 -813.056 -1.02432 
    2.3443 0.00798042 -1.94779e-05 2.0157e-08 -7.37603e-12 -917.924 0.683002 
;
oxidant 	1	28.8504
    200	6000	1000
    3.10131 0.00124137 -4.18816e-07 6.64158e-11 -3.91274e-15 -985.266 5.35597 
    3.58378 -0.000727005 1.67057e-06 -1.09203e-10 -4.31765e-13 -1050.53 3.11239 
;
reactants 	1	24.5849
    200	6000	1000
    3.07453 0.00117544 -3.75513e-07 5.83081e-11 -3.40027e-15 -957.892 4.34177 
    3.38675 0.000657103 -1.69113e-06 3.11225e-09 -1.53561e-12 -1029.45 2.72622 
;
burntProducts 	1	24.543
    200	6000	1000
    2.85691 0.00194403 -5.90213e-07 8.4096e-11 -4.49e-15 -10976.8 6.22265 
    3.76272 -0.000787587 1.93486e-06 -3.14926e-10 -3.04729e-13 -11198.7 1.64272 
;
products 	1	26.7075
    200	6000	1000
    2.97972 0.00159094 -5.04084e-07 7.52115e-11 -4.19992e-15 -5955.95 5.78713 
    3.6728 -0.000757144 1.80205e-06 -2.11548e-10 -3.68566e-13 -6099.13 2.38125 
;
Tad = 1540.64

phi = 0.46
ft = 0.0133198
fuel fuel	1	2.01588
    200	6000	1000
    2.93283 0.000826598 -1.46401e-07 1.54099e-11 -6.88796e-16 -813.056 -1.02432 
    2.3443 0.00798042 -1.94779e-05 2.0157e-08 -7.37603e-12 -917.924 0.683002 
;
oxidant 	1	28.8504
    200	6000	1000
    3.10131 0.00124137 -4.18816e-07 6.64158e-11 -3.91274e-15 -985.266 5.35597 
    3.58378 -0.000727005 1.67057e-06 -1.09203e-10 -4.31765e-13 -1050.53 3.11239 
;
reactants 	1	24.5054
    200	6000	1000
    3.07403 0.00117422 -3.74707e-07 5.81571e-11 -3.39073e-15 -957.382 4.32289 
    3.38308 0.00068288 -1.75374e-06 3.17224e-09 -1.55616e-12 -1029.06 2.71903 
;
burntProducts 	1	24.543
    200	6000	1000
    2.85691 0.00194403 -5.90213e-07 8.4096e-11 -4.49e-15 -10976.8 6.22265 
    3.76272 -0.000787587 1.93486e-06 -3.14926e-10 -3.04729e-13 -11198.7 1.64272 
;
products 	1	26.6641
    200	6000	1000
    2.97726 0.00159802 -5.05811e-07 7.53897e-11 -4.20574e-15 -6056.68 5.79587 
    3.6746 -0.000757754 1.80471e-06 -2.13622e-10 -3.67286e-13 -6201.44 2.36643 
;
Tad = 1562.44

phi = 0.47
ft = 0.0136054
fuel fuel	1	2.01588
    200	6000	1000
    2.93283 0.000826598 -1.46401e-07 1.54099e-11 -6.88796e-16 -813.056 -1.02432 
    2.3443 0.00798042 -1.94779e-05 2.0157e-08 -7.37603e-12 -917.924 0.683002 
;
oxidant 	1	28.8504
    200	6000	1000
    3.10131 0.00124137 -4.18816e-07 6.64158e-11 -3.91274e-15 -985.266 5.35597 
    3.58378 -0.000727005 1.67057e-06 -1.09203e-10 -4.31765e-13 -1050.53 3.11239 
;
reactants 	1	24.4265
    200	6000	1000
    3.07353 0.001173 -3.73906e-07 5.80071e-11 -3.38125e-15 -956.876 4.30413 
    3.37944 0.000708477 -1.81591e-06 3.23182e-09 -1.57658e-12 -1028.67 2.71189 
;
burntProducts 	1	24.543
    200	6000	1000
    2.85691 0.00194403 -5.90213e-07 8.4096e-11 -4.49e-15 -10976.8 6.22265 
    3.76272 -0.000787587 1.93486e-06 -3.14926e-10 -3.04729e-13 -11198.7 1.64272 
;
products 	1	26.6209
    200	6000	1000
    2.97481 0.00160508 -5.07533e-07 7.55673e-11 -4.21154e-15 -6157.03 5.80457 
    3.6764 -0.000758363 1.80737e-06 -2.15688e-10 -3.6601e-13 -6303.36 2.35167 
;
Tad = 1584.05

phi = 0.48
ft = 0.0138908
fuel fuel	1	2.01588
    200	6000	1000
    2.93283 0.000826598 -1.46401e-07 1.54099e-11 -6.88796e-16 -813.056 -1.02432 
    2.3443 0.00798042 -1.94779e-05 2.0157e-08 -7.37603e-12 -917.924 0.683002 
;
oxidant 	1	28.8504
    200	6000	1000
    3.10131 0.00124137 -4.18816e-07 6.64158e-11 -3.91274e-15 -985.266 5.35597 
    3.58378 -0.000727005 1.67057e-06 -1.09203e-10 -4.31765e-13 -1050.53 3.11239 
;
reactants 	1	24.3482
    200	6000	1000
    3.07304 0.00117179 -3.73111e-07 5.78582e-11 -3.37184e-15 -956.373 4.28551 
    3.37582 0.000733895 -1.87765e-06 3.29098e-09 -1.59685e-12 -1028.28 2.7048 
;
burntProducts 	1	24.543
    200	6000	1000
    2.85691 0.00194403 -5.90213e-07 8.4096e-11 -4.49e-15 -10976.8 6.22265 
    3.76272 -0.000787587 1.93486e-06 -3.14926e-10 -3.04729e-13 -11198.7 1.64272 
;
products 	1	26.5778
    200	6000	1000
    2.97236 0.00161211 -5.09248e-07 7.57442e-11 -4.21731e-15 -6256.99 5.81324 
    3.67819 -0.000758969 1.81001e-06 -2.17746e-10 -3.64739e-13 -6404.89 2.33697 
;
Tad = 1605.48

phi = 0.49
ft = 0.0141761
fuel fuel	1	2.01588
    200	6000	1000
    2.93283 0.000826598 -1.46401e-07 1.54099e-11 -6.88796e-16 -813.056 -1.02432 
    2.3443 0.00798042 -1.94779e-05 2.0157e-08 -7.37603e-12 -917.924 0.683002 
;
oxidant 	1	28.8504
    200	6000	1000
    3.10131 0.00124137 -4.18816e-07 6.64158e-11 -3.91274e-15 -985.266 5.35597 
    3.58378 -0.000727005 1.67057e-06 -1.09203e-10 -4.31765e-13 -1050.53 3.11239 
;
reactants 	1	24.2704
    200	6000	1000
    3.07255 0.00117058 -3.72321e-07 5.77104e-11 -3.36249e-15 -955.874 4.26701 
    3.37223 0.000759136 -1.93895e-06 3.34973e-09 -1.61698e-12 -1027.9 2.69775 
;
burntProducts 	1	24.543
    200	6000	1000
    2.85691 0.00194403 -5.90213e-07 8.4096e-11 -4.49e-15 -10976.8 6.22265 
    3.76272 -0.000787587 1.93486e-06 -3.14926e-10 -3.04729e-13 -11198.7 1.64272 
;
products 	1	26.5348
    200	6000	1000
    2.96993 0.00161911 -5.10956e-07 7.59204e-11 -4.22307e-15 -6356.57 5.82188 
    3.67997 -0.000759573 1.81265e-06 -2.19796e-10 -3.63473e-13 -6506.03 2.32232 
;
Tad = 1626.73

phi = 0.5
ft = 0.0144613
fuel fuel	1	2.01588
    200	6000	1000
    2.93283 0.000826598 -1.46401e-07 1.54099e-11 -6.88796e-16 -813.056 -1.02432 
    2.3443 0.00798042 -1.94779e-05 2.0157e-08 -7.37603e-12 -917.924 0.683002 
;
oxidant 	1	28.8504
    200	6000	1000
    3.10131 0.00124137 -4.18816e-07 6.64158e-11 -3.91274e-15 -985.266 5.35597 
    3.58378 -0.000727005 1.67057e-06 -1.09203e-10 -4.31765e-13 -1050.53 3.11239 
;
reactants 	1	24.1932
    200	6000	1000
    3.07207 0.00116939 -3.71537e-07 5.75635e-11 -3.35321e-15 -955.378 4.24864 
    3.36866 0.000784202 -1.99983e-06 3.40807e-09 -1.63697e-12 -1027.52 2.69076 
;
burntProducts 	1	24.543
    200	6000	1000
    2.85691 0.00194403 -5.90213e-07 8.4096e-11 -4.49e-15 -10976.8 6.22265 
    3.76272 -0.000787587 1.93486e-06 -3.14926e-10 -3.04729e-13 -11198.7 1.64272 
;
products 	1	26.4921
    200	6000	1000
    2.9675 0.00162609 -5.12657e-07 7.60959e-11 -4.2288e-15 -6455.77 5.83049 
    3.68175 -0.000760174 1.81527e-06 -2.21839e-10 -3.62211e-13 -6606.79 2.30773 
;
Tad = 1647.8

phi = 0.51
ft = 0.0147462
fuel fuel	1	2.01588
    200	6000	1000
    2.93283 0.000826598 -1.46401e-07 1.54099e-11 -6.88796e-16 -813.056 -1.02432 
    2.3443 0.00798042 -1.94779e-05 2.0157e-08 -7.37603e-12 -917.924 0.683002 
;
oxidant 	1	28.8504
    200	6000	1000
    3.10131 0.00124137 -4.18816e-07 6.64158e-11 -3.91274e-15 -985.266 5.35597 
    3.58378 -0.000727005 1.67057e-06 -1.09203e-10 -4.31765e-13 -1050.53 3.11239 
;
reactants 	1	24.1165
    200	6000	1000
    3.07159 0.0011682 -3.70758e-07 5.74177e-11 -3.344e-15 -954.886 4.2304 
    3.36512 0.000809094 -2.06029e-06 3.466e-09 -1.65682e-12 -1027.14 2.68381 
;
burntProducts 	1	24.543
    200	6000	1000
    2.85691 0.00194403 -5.90213e-07 8.4096e-11 -4.49e-15 -10976.8 6.22265 
    3.76272 -0.000787587 1.93486e-06 -3.14926e-10 -3.04729e-13 -11198.7 1.64272 
;
products 	1	26.4495
    200	6000	1000
    2.96508 0.00163304 -5.14353e-07 7.62708e-11 -4.23451e-15 -6554.6 5.83906 
    3.68352 -0.000760773 1.81788e-06 -2.23874e-10 -3.60955e-13 -6707.16 2.29319 
;
Tad = 1668.7

phi = 0.52
ft = 0.015031
fuel fuel	1	2.01588
    200	6000	1000
    2.93283 0.000826598 -1.46401e-07 1.54099e-11 -6.88796e-16 -813.056 -1.02432 
    2.3443 0.00798042 -1.94779e-05 2.0157e-08 -7.37603e-12 -917.924 0.683002 
;
oxidant 	1	28.8504
    200	6000	1000
    3.10131 0.00124137 -4.18816e-07 6.64158e-11 -3.91274e-15 -985.266 5.35597 
    3.58378 -0.000727005 1.67057e-06 -1.09203e-10 -4.31765e-13 -1050.53 3.11239 
;
reactants 	1	24.0403
    200	6000	1000
    3.07111 0.00116703 -3.69985e-07 5.72729e-11 -3.33484e-15 -954.397 4.21229 
    3.3616 0.000833815 -2.12033e-06 3.52354e-09 -1.67653e-12 -1026.76 2.67692 
;
burntProducts 	1	24.543
    200	6000	1000
    2.85691 0.00194403 -5.90213e-07 8.4096e-11 -4.49e-15 -10976.8 6.22265 
    3.76272 -0.000787587 1.93486e-06 -3.14926e-10 -3.04729e-13 -11198.7 1.64272 
;
products 	1	26.407
    200	6000	1000
    2.96267 0.00163996 -5.16042e-07 7.6445e-11 -4.2402e-15 -6653.05 5.8476 
    3.68528 -0.00076137 1.82049e-06 -2.25901e-10 -3.59703e-13 -6807.16 2.27871 
;
Tad = 1689.43

phi = 0.53
ft = 0.0153156
fuel fuel	1	2.01588
    200	6000	1000
    2.93283 0.000826598 -1.46401e-07 1.54099e-11 -6.88796e-16 -813.056 -1.02432 
    2.3443 0.00798042 -1.94779e-05 2.0157e-08 -7.37603e-12 -917.924 0.683002 
;
oxidant 	1	28.8504
    200	6000	1000
    3.10131 0.00124137 -4.18816e-07 6.64158e-11 -3.91274e-15 -985.266 5.35597 
    3.58378 -0.000727005 1.67057e-06 -1.09203e-10 -4.31765e-13 -1050.53 3.11239 
;
reactants 	1	23.9646
    200	6000	1000
    3.07063 0.00116586 -3.69217e-07 5.71291e-11 -3.32575e-15 -953.911 4.1943 
    3.3581 0.000858365 -2.17996e-06 3.58068e-09 -1.69611e-12 -1026.39 2.67007 
;
burntProducts 	1	24.543
    200	6000	1000
    2.85691 0.00194403 -5.90213e-07 8.4096e-11 -4.49e-15 -10976.8 6.22265 
    3.76272 -0.000787587 1.93486e-06 -3.14926e-10 -3.04729e-13 -11198.7 1.64272 
;
products 	1	26.3647
    200	6000	1000
    2.96027 0.00164686 -5.17724e-07 7.66186e-11 -4.24586e-15 -6751.13 5.85611 
    3.68704 -0.000761965 1.82308e-06 -2.2792e-10 -3.58456e-13 -6906.77 2.26429 
;
Tad = 1709.99

phi = 0.54
ft = 0.0156001
fuel fuel	1	2.01588
    200	6000	1000
    2.93283 0.000826598 -1.46401e-07 1.54099e-11 -6.88796e-16 -813.056 -1.02432 
    2.3443 0.00798042 -1.94779e-05 2.0157e-08 -7.37603e-12 -917.924 0.683002 
;
oxidant 	1	28.8504
    200	6000	1000
    3.10131 0.00124137 -4.18816e-07 6.64158e-11 -3.91274e-15 -985.266 5.35597 
    3.58378 -0.000727005 1.67057e-06 -1.09203e-10 -4.31765e-13 -1050.53 3.11239 
;
reactants 	1	23.8895
    200	6000	1000
    3.07016 0.00116469 -3.68454e-07 5.69863e-11 -3.31673e-15 -953.429 4.17644 
    3.35463 0.000882748 -2.23918e-06 3.63743e-09 -1.71556e-12 -1026.01 2.66327 
;
burntProducts 	1	24.543
    200	6000	1000
    2.85691 0.00194403 -5.90213e-07 8.4096e-11 -4.49e-15 -10976.8 6.22265 
    3.76272 -0.000787587 1.93486e-06 -3.14926e-10 -3.04729e-13 -11198.7 1.64272 
;
products 	1	26.3226
    200	6000	1000
    2.95788 0.00165373 -5.194e-07 7.67914e-11 -4.25151e-15 -6848.84 5.86458 
    3.68879 -0.000762557 1.82567e-06 -2.29932e-10 -3.57214e-13 -7006.01 2.24991 
;
Tad = 1730.38

phi = 0.55
ft = 0.0158844
fuel fuel	1	2.01588
    200	6000	1000
    2.93283 0.000826598 -1.46401e-07 1.54099e-11 -6.88796e-16 -813.056 -1.02432 
    2.3443 0.00798042 -1.94779e-05 2.0157e-08 -7.37603e-12 -917.924 0.683002 
;
oxidant 	1	28.8504
    200	6000	1000
    3.10131 0.00124137 -4.18816e-07 6.64158e-11 -3.91274e-15 -985.266 5.35597 
    3.58378 -0.000727005 1.67057e-06 -1.09203e-10 -4.31765e-13 -1050.53 3.11239 
;
reactants 	1	23.8148
    200	6000	1000
    3.06969 0.00116354 -3.67696e-07 5.68444e-11 -3.30776e-15 -952.95 4.15869 
    3.35119 0.000906964 -2.29799e-06 3.69379e-09 -1.73487e-12 -1025.65 2.65651 
;
burntProducts 	1	24.543
    200	6000	1000
    2.85691 0.00194403 -5.90213e-07 8.4096e-11 -4.49e-15 -10976.8 6.22265 
    3.76272 -0.000787587 1.93486e-06 -3.14926e-10 -3.04729e-13 -11198.7 1.64272 
;
products 	1	26.2807
    200	6000	1000
    2.9555 0.00166057 -5.2107e-07 7.69637e-11 -4.25713e-15 -6946.18 5.87303 
    3.69053 -0.000763148 1.82824e-06 -2.31936e-10 -3.55976e-13 -7104.88 2.23559 
;
Tad = 1750.61

phi = 0.56
ft = 0.0161685
fuel fuel	1	2.01588
    200	6000	1000
    2.93283 0.000826598 -1.46401e-07 1.54099e-11 -6.88796e-16 -813.056 -1.02432 
    2.3443 0.00798042 -1.94779e-05 2.0157e-08 -7.37603e-12 -917.924 0.683002 
;
oxidant 	1	28.8504
    200	6000	1000
    3.10131 0.00124137 -4.18816e-07 6.64158e-11 -3.91274e-15 -985.266 5.35597 
    3.58378 -0.000727005 1.67057e-06 -1.09203e-10 -4.31765e-13 -1050.53 3.11239 
;
reactants 	1	23.7407
    200	6000	1000
    3.06923 0.0011624 -3.66944e-07 5.67035e-11 -3.29886e-15 -952.475 4.14107 
    3.34776 0.000931016 -2.35641e-06 3.74977e-09 -1.75405e-12 -1025.28 2.6498 
;
burntProducts 	1	24.543
    200	6000	1000
    2.85691 0.00194403 -5.90213e-07 8.4096e-11 -4.49e-15 -10976.8 6.22265 
    3.76272 -0.000787587 1.93486e-06 -3.14926e-10 -3.04729e-13 -11198.7 1.64272 
;
products 	1	26.2388
    200	6000	1000
    2.95313 0.00166739 -5.22734e-07 7.71353e-11 -4.26273e-15 -7043.15 5.88144 
    3.69227 -0.000763736 1.83081e-06 -2.33933e-10 -3.54743e-13 -7203.38 2.22133 
;
Tad = 1770.68

phi = 0.57
ft = 0.0164525
fuel fuel	1	2.01588
    200	6000	1000
    2.93283 0.000826598 -1.46401e-07 1.54099e-11 -6.88796e-16 -813.056 -1.02432 
    2.3443 0.00798042 -1.94779e-05 2.0157e-08 -7.37603e-12 -917.924 0.683002 
;
oxidant 	1	28.8504
    200	6000	1000
    3.10131 0.00124137 -4.18816e-07 6.64158e-11 -3.91274e-15 -985.266 5.35597 
    3.58378 -0.000727005 1.67057e-06 -1.09203e-10 -4.31765e-13 -1050.53 3.11239 
;
reactants 	1	23.6671
    200	6000	1000
    3.06877 0.00116126 -3.66197e-07 5.65636e-11 -3.29001e-15 -952.002 4.12356 
    3.34436 0.000954904 -2.41443e-06 3.80537e-09 -1.77311e-12 -1024.92 2.64313 
;
burntProducts 	1	24.543
    200	6000	1000
    2.85691 0.00194403 -5.90213e-07 8.4096e-11 -4.49e-15 -10976.8 6.22265 
    3.76272 -0.000787587 1.93486e-06 -3.14926e-10 -3.04729e-13 -11198.7 1.64272 
;
products 	1	26.1972
    200	6000	1000
    2.95077 0.00167419 -5.24391e-07 7.73062e-11 -4.26832e-15 -7139.77 5.88982 
    3.694 -0.000764321 1.83336e-06 -2.35922e-10 -3.53515e-13 -7301.5 2.20712 
;
Tad = 1790.58

phi = 0.58
ft = 0.0167363
fuel fuel	1	2.01588
    200	6000	1000
    2.93283 0.000826598 -1.46401e-07 1.54099e-11 -6.88796e-16 -813.056 -1.02432 
    2.3443 0.00798042 -1.94779e-05 2.0157e-08 -7.37603e-12 -917.924 0.683002 
;
oxidant 	1	28.8504
    200	6000	1000
    3.10131 0.00124137 -4.18816e-07 6.64158e-11 -3.91274e-15 -985.266 5.35597 
    3.58378 -0.000727005 1.67057e-06 -1.09203e-10 -4.31765e-13 -1050.53 3.11239 
;
reactants 	1	23.594
    200	6000	1000
    3.06831 0.00116013 -3.65454e-07 5.64246e-11 -3.28123e-15 -951.533 4.10618 
    3.34098 0.000978632 -2.47206e-06 3.86059e-09 -1.79203e-12 -1024.55 2.63651 
;
burntProducts 	1	24.543
    200	6000	1000
    2.85691 0.00194403 -5.90213e-07 8.4096e-11 -4.49e-15 -10976.8 6.22265 
    3.76272 -0.000787587 1.93486e-06 -3.14926e-10 -3.04729e-13 -11198.7 1.64272 
;
products 	1	26.1557
    200	6000	1000
    2.94841 0.00168096 -5.26042e-07 7.74766e-11 -4.27388e-15 -7236.02 5.89817 
    3.69572 -0.000764905 1.83591e-06 -2.37904e-10 -3.52291e-13 -7399.26 2.19296 
;
Tad = 1810.33

phi = 0.59
ft = 0.01702
fuel fuel	1	2.01588
    200	6000	1000
    2.93283 0.000826598 -1.46401e-07 1.54099e-11 -6.88796e-16 -813.056 -1.02432 
    2.3443 0.00798042 -1.94779e-05 2.0157e-08 -7.37603e-12 -917.924 0.683002 
;
oxidant 	1	28.8504
    200	6000	1000
    3.10131 0.00124137 -4.18816e-07 6.64158e-11 -3.91274e-15 -985.266 5.35597 
    3.58378 -0.000727005 1.67057e-06 -1.09203e-10 -4.31765e-13 -1050.53 3.11239 
;
reactants 	1	23.5213
    200	6000	1000
    3.06785 0.001159 -3.64717e-07 5.62866e-11 -3.2725e-15 -951.067 4.08891 
    3.33763 0.0010022 -2.5293e-06 3.91545e-09 -1.81082e-12 -1024.2 2.62994 
;
burntProducts 	1	24.543
    200	6000	1000
    2.85691 0.00194403 -5.90213e-07 8.4096e-11 -4.49e-15 -10976.8 6.22265 
    3.76272 -0.000787587 1.93486e-06 -3.14926e-10 -3.04729e-13 -11198.7 1.64272 
;
products 	1	26.1144
    200	6000	1000
    2.94607 0.0016877 -5.27687e-07 7.76462e-11 -4.27942e-15 -7331.91 5.90648 
    3.69744 -0.000765486 1.83845e-06 -2.39878e-10 -3.51072e-13 -7496.66 2.17886 
;
Tad = 1829.93

phi = 0.6
ft = 0.0173035
fuel fuel	1	2.01588
    200	6000	1000
    2.93283 0.000826598 -1.46401e-07 1.54099e-11 -6.88796e-16 -813.056 -1.02432 
    2.3443 0.00798042 -1.94779e-05 2.0157e-08 -7.37603e-12 -917.924 0.683002 
;
oxidant 	1	28.8504
    200	6000	1000
    3.10131 0.00124137 -4.18816e-07 6.64158e-11 -3.91274e-15 -985.266 5.35597 
    3.58378 -0.000727005 1.67057e-06 -1.09203e-10 -4.31765e-13 -1050.53 3.11239 
;
reactants 	1	23.4492
    200	6000	1000
    3.0674 0.00115789 -3.63985e-07 5.61494e-11 -3.26383e-15 -950.604 4.07176 
    3.3343 0.00102561 -2.58616e-06 3.96993e-09 -1.82949e-12 -1023.84 2.62341 
;
burntProducts 	1	24.543
    200	6000	1000
    2.85691 0.00194403 -5.90213e-07 8.4096e-11 -4.49e-15 -10976.8 6.22265 
    3.76272 -0.000787587 1.93486e-06 -3.14926e-10 -3.04729e-13 -11198.7 1.64272 
;
products 	1	26.0732
    200	6000	1000
    2.94373 0.00169442 -5.29326e-07 7.78153e-11 -4.28494e-15 -7427.44 5.91477 
    3.69915 -0.000766066 1.84097e-06 -2.41845e-10 -3.49857e-13 -7593.69 2.16481 
;
Tad = 1849.37

phi = 0.61
ft = 0.0175868
fuel fuel	1	2.01588
    200	6000	1000
    2.93283 0.000826598 -1.46401e-07 1.54099e-11 -6.88796e-16 -813.056 -1.02432 
    2.3443 0.00798042 -1.94779e-05 2.0157e-08 -7.37603e-12 -917.924 0.683002 
;
oxidant 	1	28.8504
    200	6000	1000
    3.10131 0.00124137 -4.18816e-07 6.64158e-11 -3.91274e-15 -985.266 5.35597 
    3.58378 -0.000727005 1.67057e-06 -1.09203e-10 -4.31765e-13 -1050.53 3.11239 
;
reactants 	1	23.3775
    200	6000	1000
    3.06695 0.00115678 -3.63257e-07 5.60132e-11 -3.25522e-15 -950.144 4.05472 
    3.33099 0.00104886 -2.64263e-06 4.02405e-09 -1.84804e-12 -1023.48 2.61692 
;
burntProducts 	1	24.543
    200	6000	1000
    2.85691 0.00194403 -5.90213e-07 8.4096e-11 -4.49e-15 -10976.8 6.22265 
    3.76272 -0.000787587 1.93486e-06 -3.14926e-10 -3.04729e-13 -11198.7 1.64272 
;
products 	1	26.0321
    200	6000	1000
    2.9414 0.00170111 -5.30958e-07 7.79837e-11 -4.29044e-15 -7522.62 5.92303 
    3.70085 -0.000766643 1.84349e-06 -2.43805e-10 -3.48647e-13 -7690.36 2.15081 
;
Tad = 1868.66

phi = 0.62
ft = 0.0178699
fuel fuel	1	2.01588
    200	6000	1000
    2.93283 0.000826598 -1.46401e-07 1.54099e-11 -6.88796e-16 -813.056 -1.02432 
    2.3443 0.00798042 -1.94779e-05 2.0157e-08 -7.37603e-12 -917.924 0.683002 
;
oxidant 	1	28.8504
    200	6000	1000
    3.10131 0.00124137 -4.18816e-07 6.64158e-11 -3.91274e-15 -985.266 5.35597 
    3.58378 -0.000727005 1.67057e-06 -1.09203e-10 -4.31765e-13 -1050.53 3.11239 
;
reactants 	1	23.3064
    200	6000	1000
    3.0665 0.00115568 -3.62534e-07 5.58779e-11 -3.24667e-15 -949.687 4.03779 
    3.3277 0.00107196 -2.69873e-06 4.07781e-09 -1.86646e-12 -1023.13 2.61047 
;
burntProducts 	1	24.543
    200	6000	1000
    2.85691 0.00194403 -5.90213e-07 8.4096e-11 -4.49e-15 -10976.8 6.22265 
    3.76272 -0.000787587 1.93486e-06 -3.14926e-10 -3.04729e-13 -11198.7 1.64272 
;
products 	1	25.9913
    200	6000	1000
    2.93908 0.00170778 -5.32585e-07 7.81515e-11 -4.29591e-15 -7617.44 5.93125 
    3.70255 -0.000767218 1.846e-06 -2.45757e-10 -3.47441e-13 -7786.67 2.13686 
;
Tad = 1887.8

phi = 0.63
ft = 0.0181529
fuel fuel	1	2.01588
    200	6000	1000
    2.93283 0.000826598 -1.46401e-07 1.54099e-11 -6.88796e-16 -813.056 -1.02432 
    2.3443 0.00798042 -1.94779e-05 2.0157e-08 -7.37603e-12 -917.924 0.683002 
;
oxidant 	1	28.8504
    200	6000	1000
    3.10131 0.00124137 -4.18816e-07 6.64158e-11 -3.91274e-15 -985.266 5.35597 
    3.58378 -0.000727005 1.67057e-06 -1.09203e-10 -4.31765e-13 -1050.53 3.11239 
;
reactants 	1	23.2356
    200	6000	1000
    3.06606 0.00115459 -3.61817e-07 5.57435e-11 -3.23818e-15 -949.233 4.02098 
    3.32443 0.0010949 -2.75446e-06 4.13121e-09 -1.88476e-12 -1022.78 2.60407 
;
burntProducts 	1	24.543
    200	6000	1000
    2.85691 0.00194403 -5.90213e-07 8.4096e-11 -4.49e-15 -10976.8 6.22265 
    3.76272 -0.000787587 1.93486e-06 -3.14926e-10 -3.04729e-13 -11198.7 1.64272 
;
products 	1	25.9505
    200	6000	1000
    2.93677 0.00171442 -5.34206e-07 7.83187e-11 -4.30137e-15 -7711.91 5.93945 
    3.70424 -0.00076779 1.8485e-06 -2.47702e-10 -3.4624e-13 -7882.62 2.12296 
;
Tad = 1906.79

phi = 0.64
ft = 0.0184358
fuel fuel	1	2.01588
    200	6000	1000
    2.93283 0.000826598 -1.46401e-07 1.54099e-11 -6.88796e-16 -813.056 -1.02432 
    2.3443 0.00798042 -1.94779e-05 2.0157e-08 -7.37603e-12 -917.924 0.683002 
;
oxidant 	1	28.8504
    200	6000	1000
    3.10131 0.00124137 -4.18816e-07 6.64158e-11 -3.91274e-15 -985.266 5.35597 
    3.58378 -0.000727005 1.67057e-06 -1.09203e-10 -4.31765e-13 -1050.53 3.11239 
;
reactants 	1	23.1654
    200	6000	1000
    3.06562 0.0011535 -3.61104e-07 5.561e-11 -3.22974e-15 -948.783 4.00428 
    3.32119 0.0011177 -2.80982e-06 4.18426e-09 -1.90293e-12 -1022.44 2.59771 
;
burntProducts 	1	24.543
    200	6000	1000
    2.85691 0.00194403 -5.90213e-07 8.4096e-11 -4.49e-15 -10976.8 6.22265 
    3.76272 -0.000787587 1.93486e-06 -3.14926e-10 -3.04729e-13 -11198.7 1.64272 
;
products 	1	25.91
    200	6000	1000
    2.93447 0.00172104 -5.3582e-07 7.84852e-11 -4.30681e-15 -7806.04 5.94761 
    3.70593 -0.000768361 1.85099e-06 -2.4964e-10 -3.45044e-13 -7978.22 2.10912 
;
Tad = 1925.64

phi = 0.65
ft = 0.0187184
fuel fuel	1	2.01588
    200	6000	1000
    2.93283 0.000826598 -1.46401e-07 1.54099e-11 -6.88796e-16 -813.056 -1.02432 
    2.3443 0.00798042 -1.94779e-05 2.0157e-08 -7.37603e-12 -917.924 0.683002 
;
oxidant 	1	28.8504
    200	6000	1000
    3.10131 0.00124137 -4.18816e-07 6.64158e-11 -3.91274e-15 -985.266 5.35597 
    3.58378 -0.000727005 1.67057e-06 -1.09203e-10 -4.31765e-13 -1050.53 3.11239 
;
reactants 	1	23.0956
    200	6000	1000
    3.06518 0.00115242 -3.60395e-07 5.54774e-11 -3.22135e-15 -948.335 3.98769 
    3.31797 0.00114034 -2.86481e-06 4.23696e-09 -1.92099e-12 -1022.09 2.5914 
;
burntProducts 	1	24.543
    200	6000	1000
    2.85691 0.00194403 -5.90213e-07 8.4096e-11 -4.49e-15 -10976.8 6.22265 
    3.76272 -0.000787587 1.93486e-06 -3.14926e-10 -3.04729e-13 -11198.7 1.64272 
;
products 	1	25.8695
    200	6000	1000
    2.93218 0.00172764 -5.37429e-07 7.86512e-11 -4.31223e-15 -7899.81 5.95575 
    3.70761 -0.00076893 1.85347e-06 -2.51571e-10 -3.43851e-13 -8073.46 2.09532 
;
Tad = 1944.34

phi = 0.66
ft = 0.0190009
fuel fuel	1	2.01588
    200	6000	1000
    2.93283 0.000826598 -1.46401e-07 1.54099e-11 -6.88796e-16 -813.056 -1.02432 
    2.3443 0.00798042 -1.94779e-05 2.0157e-08 -7.37603e-12 -917.924 0.683002 
;
oxidant 	1	28.8504
    200	6000	1000
    3.10131 0.00124137 -4.18816e-07 6.64158e-11 -3.91274e-15 -985.266 5.35597 
    3.58378 -0.000727005 1.67057e-06 -1.09203e-10 -4.31765e-13 -1050.53 3.11239 
;
reactants 	1	23.0263
    200	6000	1000
    3.06474 0.00115135 -3.59692e-07 5.53456e-11 -3.21302e-15 -947.89 3.97121 
    3.31476 0.00116283 -2.91944e-06 4.28931e-09 -1.93893e-12 -1021.75 2.58512 
;
burntProducts 	1	24.543
    200	6000	1000
    2.85691 0.00194403 -5.90213e-07 8.4096e-11 -4.49e-15 -10976.8 6.22265 
    3.76272 -0.000787587 1.93486e-06 -3.14926e-10 -3.04729e-13 -11198.7 1.64272 
;
products 	1	25.8293
    200	6000	1000
    2.92989 0.00173421 -5.39031e-07 7.88165e-11 -4.31763e-15 -7993.24 5.96385 
    3.70928 -0.000769496 1.85594e-06 -2.53495e-10 -3.42663e-13 -8168.35 2.08158 
;
Tad = 1962.91

phi = 0.67
ft = 0.0192833
fuel fuel	1	2.01588
    200	6000	1000
    2.93283 0.000826598 -1.46401e-07 1.54099e-11 -6.88796e-16 -813.056 -1.02432 
    2.3443 0.00798042 -1.94779e-05 2.0157e-08 -7.37603e-12 -917.924 0.683002 
;
oxidant 	1	28.8504
    200	6000	1000
    3.10131 0.00124137 -4.18816e-07 6.64158e-11 -3.91274e-15 -985.266 5.35597 
    3.58378 -0.000727005 1.67057e-06 -1.09203e-10 -4.31765e-13 -1050.53 3.11239 
;
reactants 	1	22.9574
    200	6000	1000
    3.06431 0.00115029 -3.58992e-07 5.52147e-11 -3.20475e-15 -947.448 3.95483 
    3.31158 0.00118518 -2.97371e-06 4.34132e-09 -1.95675e-12 -1021.41 2.57889 
;
burntProducts 	1	24.543
    200	6000	1000
    2.85691 0.00194403 -5.90213e-07 8.4096e-11 -4.49e-15 -10976.8 6.22265 
    3.76272 -0.000787587 1.93486e-06 -3.14926e-10 -3.04729e-13 -11198.7 1.64272 
;
products 	1	25.7891
    200	6000	1000
    2.92762 0.00174075 -5.40628e-07 7.89812e-11 -4.323e-15 -8086.32 5.97192 
    3.71095 -0.000770061 1.8584e-06 -2.55411e-10 -3.4148e-13 -8262.9 2.06789 
;
Tad = 1981.33

phi = 0.68
ft = 0.0195654
fuel fuel	1	2.01588
    200	6000	1000
    2.93283 0.000826598 -1.46401e-07 1.54099e-11 -6.88796e-16 -813.056 -1.02432 
    2.3443 0.00798042 -1.94779e-05 2.0157e-08 -7.37603e-12 -917.924 0.683002 
;
oxidant 	1	28.8504
    200	6000	1000
    3.10131 0.00124137 -4.18816e-07 6.64158e-11 -3.91274e-15 -985.266 5.35597 
    3.58378 -0.000727005 1.67057e-06 -1.09203e-10 -4.31765e-13 -1050.53 3.11239 
;
reactants 	1	22.889
    200	6000	1000
    3.06388 0.00114923 -3.58298e-07 5.50847e-11 -3.19653e-15 -947.009 3.93857 
    3.30842 0.00120738 -3.02763e-06 4.39299e-09 -1.97445e-12 -1021.07 2.57269 
;
burntProducts 	1	24.543
    200	6000	1000
    2.85691 0.00194403 -5.90213e-07 8.4096e-11 -4.49e-15 -10976.8 6.22265 
    3.76272 -0.000787587 1.93486e-06 -3.14926e-10 -3.04729e-13 -11198.7 1.64272 
;
products 	1	25.7492
    200	6000	1000
    2.92535 0.00174728 -5.42219e-07 7.91453e-11 -4.32836e-15 -8179.07 5.97997 
    3.71261 -0.000770623 1.86085e-06 -2.57321e-10 -3.40301e-13 -8357.09 2.05425 
;
Tad = 1999.61

phi = 0.69
ft = 0.0198475
fuel fuel	1	2.01588
    200	6000	1000
    2.93283 0.000826598 -1.46401e-07 1.54099e-11 -6.88796e-16 -813.056 -1.02432 
    2.3443 0.00798042 -1.94779e-05 2.0157e-08 -7.37603e-12 -917.924 0.683002 
;
oxidant 	1	28.8504
    200	6000	1000
    3.10131 0.00124137 -4.18816e-07 6.64158e-11 -3.91274e-15 -985.266 5.35597 
    3.58378 -0.000727005 1.67057e-06 -1.09203e-10 -4.31765e-13 -1050.53 3.11239 
;
reactants 	1	22.8211
    200	6000	1000
    3.06345 0.00114818 -3.57608e-07 5.49555e-11 -3.18837e-15 -946.573 3.92241 
    3.30528 0.00122943 -3.0812e-06 4.44432e-09 -1.99204e-12 -1020.73 2.56654 
;
burntProducts 	1	24.543
    200	6000	1000
    2.85691 0.00194403 -5.90213e-07 8.4096e-11 -4.49e-15 -10976.8 6.22265 
    3.76272 -0.000787587 1.93486e-06 -3.14926e-10 -3.04729e-13 -11198.7 1.64272 
;
products 	1	25.7093
    200	6000	1000
    2.92309 0.00175377 -5.43804e-07 7.93088e-11 -4.3337e-15 -8271.47 5.98798 
    3.71427 -0.000771183 1.8633e-06 -2.59223e-10 -3.39126e-13 -8450.94 2.04066 
;
Tad = 2017.76

phi = 0.7
ft = 0.0201293
fuel fuel	1	2.01588
    200	6000	1000
    2.93283 0.000826598 -1.46401e-07 1.54099e-11 -6.88796e-16 -813.056 -1.02432 
    2.3443 0.00798042 -1.94779e-05 2.0157e-08 -7.37603e-12 -917.924 0.683002 
;
oxidant 	1	28.8504
    200	6000	1000
    3.10131 0.00124137 -4.18816e-07 6.64158e-11 -3.91274e-15 -985.266 5.35597 
    3.58378 -0.000727005 1.67057e-06 -1.09203e-10 -4.31765e-13 -1050.53 3.11239 
;
reactants 	1	22.7535
    200	6000	1000
    3.06303 0.00114714 -3.56922e-07 5.48271e-11 -3.18025e-15 -946.139 3.90635 
    3.30216 0.00125134 -3.13442e-06 4.49532e-09 -2.00952e-12 -1020.4 2.56043 
;
burntProducts 	1	24.543
    200	6000	1000
    2.85691 0.00194403 -5.90213e-07 8.4096e-11 -4.49e-15 -10976.8 6.22265 
    3.76272 -0.000787587 1.93486e-06 -3.14926e-10 -3.04729e-13 -11198.7 1.64272 
;
products 	1	25.6696
    200	6000	1000
    2.92083 0.00176025 -5.45383e-07 7.94717e-11 -4.33902e-15 -8363.53 5.99597 
    3.71591 -0.000771741 1.86573e-06 -2.61119e-10 -3.37955e-13 -8544.45 2.02712 
;
Tad = 2035.78

phi = 0.71
ft = 0.020411
fuel fuel	1	2.01588
    200	6000	1000
    2.93283 0.000826598 -1.46401e-07 1.54099e-11 -6.88796e-16 -813.056 -1.02432 
    2.3443 0.00798042 -1.94779e-05 2.0157e-08 -7.37603e-12 -917.924 0.683002 
;
oxidant 	1	28.8504
    200	6000	1000
    3.10131 0.00124137 -4.18816e-07 6.64158e-11 -3.91274e-15 -985.266 5.35597 
    3.58378 -0.000727005 1.67057e-06 -1.09203e-10 -4.31765e-13 -1050.53 3.11239 
;
reactants 	1	22.6864
    200	6000	1000
    3.06261 0.0011461 -3.56241e-07 5.46996e-11 -3.17219e-15 -945.709 3.8904 
    3.29907 0.00127311 -3.18729e-06 4.54599e-09 -2.02688e-12 -1020.07 2.55435 
;
burntProducts 	1	24.543
    200	6000	1000
    2.85691 0.00194403 -5.90213e-07 8.4096e-11 -4.49e-15 -10976.8 6.22265 
    3.76272 -0.000787587 1.93486e-06 -3.14926e-10 -3.04729e-13 -11198.7 1.64272 
;
products 	1	25.6301
    200	6000	1000
    2.91859 0.0017667 -5.46957e-07 7.9634e-11 -4.34432e-15 -8455.26 6.00393 
    3.71756 -0.000772298 1.86816e-06 -2.63008e-10 -3.36789e-13 -8637.62 2.01362 
;
Tad = 2053.66

phi = 0.72
ft = 0.0206925
fuel fuel	1	2.01588
    200	6000	1000
    2.93283 0.000826598 -1.46401e-07 1.54099e-11 -6.88796e-16 -813.056 -1.02432 
    2.3443 0.00798042 -1.94779e-05 2.0157e-08 -7.37603e-12 -917.924 0.683002 
;
oxidant 	1	28.8504
    200	6000	1000
    3.10131 0.00124137 -4.18816e-07 6.64158e-11 -3.91274e-15 -985.266 5.35597 
    3.58378 -0.000727005 1.67057e-06 -1.09203e-10 -4.31765e-13 -1050.53 3.11239 
;
reactants 	1	22.6198
    200	6000	1000
    3.06219 0.00114507 -3.55565e-07 5.45729e-11 -3.16418e-15 -945.281 3.87455 
    3.29599 0.00129474 -3.23983e-06 4.59633e-09 -2.04413e-12 -1019.74 2.54832 
;
burntProducts 	1	24.543
    200	6000	1000
    2.85691 0.00194403 -5.90213e-07 8.4096e-11 -4.49e-15 -10976.8 6.22265 
    3.76272 -0.000787587 1.93486e-06 -3.14926e-10 -3.04729e-13 -11198.7 1.64272 
;
products 	1	25.5907
    200	6000	1000
    2.91636 0.00177313 -5.48525e-07 7.97957e-11 -4.3496e-15 -8546.65 6.01185 
    3.71919 -0.000772852 1.87058e-06 -2.64889e-10 -3.35627e-13 -8730.44 2.00018 
;
Tad = 2071.41

phi = 0.73
ft = 0.0209739
fuel fuel	1	2.01588
    200	6000	1000
    2.93283 0.000826598 -1.46401e-07 1.54099e-11 -6.88796e-16 -813.056 -1.02432 
    2.3443 0.00798042 -1.94779e-05 2.0157e-08 -7.37603e-12 -917.924 0.683002 
;
oxidant 	1	28.8504
    200	6000	1000
    3.10131 0.00124137 -4.18816e-07 6.64158e-11 -3.91274e-15 -985.266 5.35597 
    3.58378 -0.000727005 1.67057e-06 -1.09203e-10 -4.31765e-13 -1050.53 3.11239 
;
reactants 	1	22.5535
    200	6000	1000
    3.06177 0.00114405 -3.54892e-07 5.4447e-11 -3.15623e-15 -944.856 3.8588 
    3.29293 0.00131624 -3.29203e-06 4.64635e-09 -2.06127e-12 -1019.41 2.54232 
;
burntProducts 	1	24.543
    200	6000	1000
    2.85691 0.00194403 -5.90213e-07 8.4096e-11 -4.49e-15 -10976.8 6.22265 
    3.76272 -0.000787587 1.93486e-06 -3.14926e-10 -3.04729e-13 -11198.7 1.64272 
;
products 	1	25.5514
    200	6000	1000
    2.91413 0.00177953 -5.50087e-07 7.99569e-11 -4.35486e-15 -8637.71 6.01975 
    3.72082 -0.000773404 1.87299e-06 -2.66764e-10 -3.34469e-13 -8822.93 1.98679 
;
Tad = 2089.02

phi = 0.74
ft = 0.0212551
fuel fuel	1	2.01588
    200	6000	1000
    2.93283 0.000826598 -1.46401e-07 1.54099e-11 -6.88796e-16 -813.056 -1.02432 
    2.3443 0.00798042 -1.94779e-05 2.0157e-08 -7.37603e-12 -917.924 0.683002 
;
oxidant 	1	28.8504
    200	6000	1000
    3.10131 0.00124137 -4.18816e-07 6.64158e-11 -3.91274e-15 -985.266 5.35597 
    3.58378 -0.000727005 1.67057e-06 -1.09203e-10 -4.31765e-13 -1050.53 3.11239 
;
reactants 	1	22.4877
    200	6000	1000
    3.06136 0.00114303 -3.54224e-07 5.43219e-11 -3.14832e-15 -944.434 3.84316 
    3.28989 0.00133759 -3.34389e-06 4.69605e-09 -2.0783e-12 -1019.09 2.53636 
;
burntProducts 	1	24.543
    200	6000	1000
    2.85691 0.00194403 -5.90213e-07 8.4096e-11 -4.49e-15 -10976.8 6.22265 
    3.76272 -0.000787587 1.93486e-06 -3.14926e-10 -3.04729e-13 -11198.7 1.64272 
;
products 	1	25.5123
    200	6000	1000
    2.91191 0.00178591 -5.51643e-07 8.01174e-11 -4.3601e-15 -8728.44 6.02762 
    3.72245 -0.000773954 1.87539e-06 -2.68632e-10 -3.33316e-13 -8915.08 1.97344 
;
Tad = 2106.52

phi = 0.75
ft = 0.0215362
fuel fuel	1	2.01588
    200	6000	1000
    2.93283 0.000826598 -1.46401e-07 1.54099e-11 -6.88796e-16 -813.056 -1.02432 
    2.3443 0.00798042 -1.94779e-05 2.0157e-08 -7.37603e-12 -917.924 0.683002 
;
oxidant 	1	28.8504
    200	6000	1000
    3.10131 0.00124137 -4.18816e-07 6.64158e-11 -3.91274e-15 -985.266 5.35597 
    3.58378 -0.000727005 1.67057e-06 -1.09203e-10 -4.31765e-13 -1050.53 3.11239 
;
reactants 	1	22.4224
    200	6000	1000
    3.06095 0.00114202 -3.5356e-07 5.41977e-11 -3.14047e-15 -944.014 3.82761 
    3.28687 0.00135881 -3.39542e-06 4.74543e-09 -2.09522e-12 -1018.76 2.53044 
;
burntProducts 	1	24.543
    200	6000	1000
    2.85691 0.00194403 -5.90213e-07 8.4096e-11 -4.49e-15 -10976.8 6.22265 
    3.76272 -0.000787587 1.93486e-06 -3.14926e-10 -3.04729e-13 -11198.7 1.64272 
;
products 	1	25.4733
    200	6000	1000
    2.9097 0.00179227 -5.53194e-07 8.02774e-11 -4.36532e-15 -8818.84 6.03546 
    3.72407 -0.000774502 1.87778e-06 -2.70494e-10 -3.32166e-13 -9006.9 1.96014 
;
Tad = 2123.88

phi = 0.76
ft = 0.021817
fuel fuel	1	2.01588
    200	6000	1000
    2.93283 0.000826598 -1.46401e-07 1.54099e-11 -6.88796e-16 -813.056 -1.02432 
    2.3443 0.00798042 -1.94779e-05 2.0157e-08 -7.37603e-12 -917.924 0.683002 
;
oxidant 	1	28.8504
    200	6000	1000
    3.10131 0.00124137 -4.18816e-07 6.64158e-11 -3.91274e-15 -985.266 5.35597 
    3.58378 -0.000727005 1.67057e-06 -1.09203e-10 -4.31765e-13 -1050.53 3.11239 
;
reactants 	1	22.3574
    200	6000	1000
    3.06054 0.00114101 -3.52901e-07 5.40742e-11 -3.13266e-15 -943.597 3.81216 
    3.28387 0.00137989 -3.44662e-06 4.7945e-09 -2.11203e-12 -1018.44 2.52456 
;
burntProducts 	1	24.543
    200	6000	1000
    2.85691 0.00194403 -5.90213e-07 8.4096e-11 -4.49e-15 -10976.8 6.22265 
    3.76272 -0.000787587 1.93486e-06 -3.14926e-10 -3.04729e-13 -11198.7 1.64272 
;
products 	1	25.4345
    200	6000	1000
    2.90749 0.0017986 -5.54739e-07 8.04368e-11 -4.37053e-15 -8908.91 6.04328 
    3.72568 -0.000775048 1.88016e-06 -2.72348e-10 -3.31021e-13 -9098.38 1.9469 
;
Tad = 2141.12

phi = 0.77
ft = 0.0220978
fuel fuel	1	2.01588
    200	6000	1000
    2.93283 0.000826598 -1.46401e-07 1.54099e-11 -6.88796e-16 -813.056 -1.02432 
    2.3443 0.00798042 -1.94779e-05 2.0157e-08 -7.37603e-12 -917.924 0.683002 
;
oxidant 	1	28.8504
    200	6000	1000
    3.10131 0.00124137 -4.18816e-07 6.64158e-11 -3.91274e-15 -985.266 5.35597 
[...]
    2.85691 0.00194403 -5.90213e-07 8.4096e-11 -4.49e-15 -10976.8 6.22265 
    3.76272 -0.000787587 1.93486e-06 -3.14926e-10 -3.04729e-13 -11198.7 1.64272 
;
products 	1	15.8509
    200	6000	1000
    2.88621 0.00151287 -4.18968e-07 5.75935e-11 -3.02331e-15 -7055.16 3.42642 
    3.21542 0.00259554 -6.32724e-06 7.58414e-09 -3.03318e-12 -7231.89 1.27241 
;
Tad = 1819.96

phi = 2.82
ft = 0.0764328
fuel fuel	1	2.01588
    200	6000	1000
    2.93283 0.000826598 -1.46401e-07 1.54099e-11 -6.88796e-16 -813.056 -1.02432 
    2.3443 0.00798042 -1.94779e-05 2.0157e-08 -7.37603e-12 -917.924 0.683002 
;
oxidant 	1	28.8504
    200	6000	1000
    3.10131 0.00124137 -4.18816e-07 6.64158e-11 -3.91274e-15 -985.266 5.35597 
    3.58378 -0.000727005 1.67057e-06 -1.09203e-10 -4.31765e-13 -1050.53 3.11239 
;
reactants 	1	14.3005
    200	6000	1000
    3.00996 0.00101648 -2.7111e-07 3.876e-11 -2.16469e-15 -891.892 1.89652 
    2.91172 0.00399424 -9.79632e-06 1.08793e-08 -4.197e-12 -978.63 1.79515 
;
burntProducts 	1	24.543
    200	6000	1000
    2.85691 0.00194403 -5.90213e-07 8.4096e-11 -4.49e-15 -10976.8 6.22265 
    3.76272 -0.000787587 1.93486e-06 -3.14926e-10 -3.04729e-13 -11198.7 1.64272 
;
products 	1	15.8215
    200	6000	1000
    2.8863 0.00151141 -4.18388e-07 5.75038e-11 -3.01834e-15 -7041.88 3.41695 
    3.21357 0.002607 -6.35522e-06 7.61088e-09 -3.04242e-12 -7218.46 1.27116 
;
Tad = 1817.33

phi = 2.83
ft = 0.0766831
fuel fuel	1	2.01588
    200	6000	1000
    2.93283 0.000826598 -1.46401e-07 1.54099e-11 -6.88796e-16 -813.056 -1.02432 
    2.3443 0.00798042 -1.94779e-05 2.0157e-08 -7.37603e-12 -917.924 0.683002 
;
oxidant 	1	28.8504
    200	6000	1000
    3.10131 0.00124137 -4.18816e-07 6.64158e-11 -3.91274e-15 -985.266 5.35597 
    3.58378 -0.000727005 1.67057e-06 -1.09203e-10 -4.31765e-13 -1050.53 3.11239 
;
reactants 	1	14.2769
    200	6000	1000
    3.00981 0.00101612 -2.70871e-07 3.87151e-11 -2.16186e-15 -891.741 1.89092 
    2.91063 0.00400189 -9.8149e-06 1.08971e-08 -4.2031e-12 -978.513 1.79302 
;
burntProducts 	1	24.543
    200	6000	1000
    2.85691 0.00194403 -5.90213e-07 8.4096e-11 -4.49e-15 -10976.8 6.22265 
    3.76272 -0.000787587 1.93486e-06 -3.14926e-10 -3.04729e-13 -11198.7 1.64272 
;
products 	1	15.7922
    200	6000	1000
    2.8864 0.00150996 -4.17811e-07 5.74144e-11 -3.0134e-15 -7028.66 3.40752 
    3.21172 0.0026184 -6.38307e-06 7.63751e-09 -3.05162e-12 -7205.09 1.26991 
;
Tad = 1814.72

phi = 2.84
ft = 0.0769332
fuel fuel	1	2.01588
    200	6000	1000
    2.93283 0.000826598 -1.46401e-07 1.54099e-11 -6.88796e-16 -813.056 -1.02432 
    2.3443 0.00798042 -1.94779e-05 2.0157e-08 -7.37603e-12 -917.924 0.683002 
;
oxidant 	1	28.8504
    200	6000	1000
    3.10131 0.00124137 -4.18816e-07 6.64158e-11 -3.91274e-15 -985.266 5.35597 
    3.58378 -0.000727005 1.67057e-06 -1.09203e-10 -4.31765e-13 -1050.53 3.11239 
;
reactants 	1	14.2534
    200	6000	1000
    3.00966 0.00101575 -2.70632e-07 3.86705e-11 -2.15904e-15 -891.59 1.88533 
    2.90955 0.00400951 -9.83341e-06 1.09148e-08 -4.20918e-12 -978.397 1.79089 
;
burntProducts 	1	24.543
    200	6000	1000
    2.85691 0.00194403 -5.90213e-07 8.4096e-11 -4.49e-15 -10976.8 6.22265 
    3.76272 -0.000787587 1.93486e-06 -3.14926e-10 -3.04729e-13 -11198.7 1.64272 
;
products 	1	15.763
    200	6000	1000
    2.8865 0.00150851 -4.17236e-07 5.73254e-11 -3.00848e-15 -7015.49 3.39813 
    3.20989 0.00262976 -6.41081e-06 7.66403e-09 -3.06078e-12 -7191.77 1.26867 
;
Tad = 1812.11

phi = 2.85
ft = 0.0771832
fuel fuel	1	2.01588
    200	6000	1000
    2.93283 0.000826598 -1.46401e-07 1.54099e-11 -6.88796e-16 -813.056 -1.02432 
    2.3443 0.00798042 -1.94779e-05 2.0157e-08 -7.37603e-12 -917.924 0.683002 
;
oxidant 	1	28.8504
    200	6000	1000
    3.10131 0.00124137 -4.18816e-07 6.64158e-11 -3.91274e-15 -985.266 5.35597 
    3.58378 -0.000727005 1.67057e-06 -1.09203e-10 -4.31765e-13 -1050.53 3.11239 
;
reactants 	1	14.23
    200	6000	1000
    3.00952 0.00101539 -2.70395e-07 3.8626e-11 -2.15623e-15 -891.44 1.87977 
    2.90847 0.0040171 -9.85184e-06 1.09325e-08 -4.21524e-12 -978.282 1.78878 
;
burntProducts 	1	24.543
    200	6000	1000
    2.85691 0.00194403 -5.90213e-07 8.4096e-11 -4.49e-15 -10976.8 6.22265 
    3.76272 -0.000787587 1.93486e-06 -3.14926e-10 -3.04729e-13 -11198.7 1.64272 
;
products 	1	15.734
    200	6000	1000
    2.8866 0.00150707 -4.16664e-07 5.72368e-11 -3.00357e-15 -7002.38 3.38879 
    3.20806 0.00264107 -6.43843e-06 7.69044e-09 -3.0699e-12 -7178.51 1.26743 
;
Tad = 1809.51

phi = 2.86
ft = 0.077433
fuel fuel	1	2.01588
    200	6000	1000
    2.93283 0.000826598 -1.46401e-07 1.54099e-11 -6.88796e-16 -813.056 -1.02432 
    2.3443 0.00798042 -1.94779e-05 2.0157e-08 -7.37603e-12 -917.924 0.683002 
;
oxidant 	1	28.8504
    200	6000	1000
    3.10131 0.00124137 -4.18816e-07 6.64158e-11 -3.91274e-15 -985.266 5.35597 
    3.58378 -0.000727005 1.67057e-06 -1.09203e-10 -4.31765e-13 -1050.53 3.11239 
;
reactants 	1	14.2067
    200	6000	1000
    3.00937 0.00101503 -2.70158e-07 3.85817e-11 -2.15343e-15 -891.29 1.87423 
    2.90739 0.00402466 -9.87021e-06 1.09501e-08 -4.22127e-12 -978.166 1.78667 
;
burntProducts 	1	24.543
    200	6000	1000
    2.85691 0.00194403 -5.90213e-07 8.4096e-11 -4.49e-15 -10976.8 6.22265 
    3.76272 -0.000787587 1.93486e-06 -3.14926e-10 -3.04729e-13 -11198.7 1.64272 
;
products 	1	15.705
    200	6000	1000
    2.8867 0.00150563 -4.16094e-07 5.71486e-11 -2.99869e-15 -6989.33 3.37948 
    3.20624 0.00265233 -6.46594e-06 7.71673e-09 -3.07899e-12 -7165.3 1.2662 
;
Tad = 1806.92

phi = 2.87
ft = 0.0776827
fuel fuel	1	2.01588
    200	6000	1000
    2.93283 0.000826598 -1.46401e-07 1.54099e-11 -6.88796e-16 -813.056 -1.02432 
    2.3443 0.00798042 -1.94779e-05 2.0157e-08 -7.37603e-12 -917.924 0.683002 
;
oxidant 	1	28.8504
    200	6000	1000
    3.10131 0.00124137 -4.18816e-07 6.64158e-11 -3.91274e-15 -985.266 5.35597 
    3.58378 -0.000727005 1.67057e-06 -1.09203e-10 -4.31765e-13 -1050.53 3.11239 
;
reactants 	1	14.1835
    200	6000	1000
    3.00922 0.00101467 -2.69922e-07 3.85376e-11 -2.15064e-15 -891.141 1.86871 
    2.90632 0.00403219 -9.88851e-06 1.09676e-08 -4.22727e-12 -978.052 1.78456 
;
burntProducts 	1	24.543
    200	6000	1000
    2.85691 0.00194403 -5.90213e-07 8.4096e-11 -4.49e-15 -10976.8 6.22265 
    3.76272 -0.000787587 1.93486e-06 -3.14926e-10 -3.04729e-13 -11198.7 1.64272 
;
products 	1	15.6762
    200	6000	1000
    2.88679 0.0015042 -4.15526e-07 5.70608e-11 -2.99383e-15 -6976.33 3.37021 
    3.20442 0.00266355 -6.49332e-06 7.74292e-09 -3.08803e-12 -7152.15 1.26497 
;
Tad = 1804.34

phi = 2.88
ft = 0.0779323
fuel fuel	1	2.01588
    200	6000	1000
    2.93283 0.000826598 -1.46401e-07 1.54099e-11 -6.88796e-16 -813.056 -1.02432 
    2.3443 0.00798042 -1.94779e-05 2.0157e-08 -7.37603e-12 -917.924 0.683002 
;
oxidant 	1	28.8504
    200	6000	1000
    3.10131 0.00124137 -4.18816e-07 6.64158e-11 -3.91274e-15 -985.266 5.35597 
    3.58378 -0.000727005 1.67057e-06 -1.09203e-10 -4.31765e-13 -1050.53 3.11239 
;
reactants 	1	14.1604
    200	6000	1000
    3.00908 0.00101431 -2.69688e-07 3.84937e-11 -2.14786e-15 -890.993 1.86321 
    2.90525 0.0040397 -9.90673e-06 1.09851e-08 -4.23326e-12 -977.937 1.78247 
;
burntProducts 	1	24.543
    200	6000	1000
    2.85691 0.00194403 -5.90213e-07 8.4096e-11 -4.49e-15 -10976.8 6.22265 
    3.76272 -0.000787587 1.93486e-06 -3.14926e-10 -3.04729e-13 -11198.7 1.64272 
;
products 	1	15.6475
    200	6000	1000
    2.88689 0.00150278 -4.14961e-07 5.69733e-11 -2.98899e-15 -6963.38 3.36098 
    3.20262 0.00267472 -6.5206e-06 7.76899e-09 -3.09704e-12 -7139.06 1.26375 
;
Tad = 1801.77

phi = 2.89
ft = 0.0781817
fuel fuel	1	2.01588
    200	6000	1000
    2.93283 0.000826598 -1.46401e-07 1.54099e-11 -6.88796e-16 -813.056 -1.02432 
    2.3443 0.00798042 -1.94779e-05 2.0157e-08 -7.37603e-12 -917.924 0.683002 
;
oxidant 	1	28.8504
    200	6000	1000
    3.10131 0.00124137 -4.18816e-07 6.64158e-11 -3.91274e-15 -985.266 5.35597 
    3.58378 -0.000727005 1.67057e-06 -1.09203e-10 -4.31765e-13 -1050.53 3.11239 
;
reactants 	1	14.1374
    200	6000	1000
    3.00893 0.00101396 -2.69454e-07 3.84499e-11 -2.14509e-15 -890.845 1.85773 
    2.90419 0.00404717 -9.92489e-06 1.10025e-08 -4.23922e-12 -977.824 1.78039 
;
burntProducts 	1	24.543
    200	6000	1000
    2.85691 0.00194403 -5.90213e-07 8.4096e-11 -4.49e-15 -10976.8 6.22265 
    3.76272 -0.000787587 1.93486e-06 -3.14926e-10 -3.04729e-13 -11198.7 1.64272 
;
products 	1	15.619
    200	6000	1000
    2.88699 0.00150136 -4.14398e-07 5.68862e-11 -2.98416e-15 -6950.49 3.35179 
    3.20082 0.00268584 -6.54776e-06 7.79496e-09 -3.10601e-12 -7126.02 1.26253 
;
Tad = 1799.21

phi = 2.9
ft = 0.078431
fuel fuel	1	2.01588
    200	6000	1000
    2.93283 0.000826598 -1.46401e-07 1.54099e-11 -6.88796e-16 -813.056 -1.02432 
    2.3443 0.00798042 -1.94779e-05 2.0157e-08 -7.37603e-12 -917.924 0.683002 
;
oxidant 	1	28.8504
    200	6000	1000
    3.10131 0.00124137 -4.18816e-07 6.64158e-11 -3.91274e-15 -985.266 5.35597 
    3.58378 -0.000727005 1.67057e-06 -1.09203e-10 -4.31765e-13 -1050.53 3.11239 
;
reactants 	1	14.1144
    200	6000	1000
    3.00879 0.0010136 -2.69221e-07 3.84062e-11 -2.14233e-15 -890.698 1.85228 
    2.90313 0.00405462 -9.94298e-06 1.10198e-08 -4.24516e-12 -977.71 1.77831 
;
burntProducts 	1	24.543
    200	6000	1000
    2.85691 0.00194403 -5.90213e-07 8.4096e-11 -4.49e-15 -10976.8 6.22265 
    3.76272 -0.000787587 1.93486e-06 -3.14926e-10 -3.04729e-13 -11198.7 1.64272 
;
products 	1	15.5905
    200	6000	1000
    2.88708 0.00149995 -4.13837e-07 5.67994e-11 -2.97936e-15 -6937.65 3.34263 
    3.19902 0.00269691 -6.5748e-06 7.82082e-09 -3.11494e-12 -7113.03 1.26132 
;
Tad = 1796.66

phi = 2.91
ft = 0.0786802
fuel fuel	1	2.01588
    200	6000	1000
    2.93283 0.000826598 -1.46401e-07 1.54099e-11 -6.88796e-16 -813.056 -1.02432 
    2.3443 0.00798042 -1.94779e-05 2.0157e-08 -7.37603e-12 -917.924 0.683002 
;
oxidant 	1	28.8504
    200	6000	1000
    3.10131 0.00124137 -4.18816e-07 6.64158e-11 -3.91274e-15 -985.266 5.35597 
    3.58378 -0.000727005 1.67057e-06 -1.09203e-10 -4.31765e-13 -1050.53 3.11239 
;
reactants 	1	14.0915
    200	6000	1000
    3.00865 0.00101325 -2.68989e-07 3.83628e-11 -2.13959e-15 -890.551 1.84684 
    2.90207 0.00406204 -9.961e-06 1.10371e-08 -4.25108e-12 -977.597 1.77624 
;
burntProducts 	1	24.543
    200	6000	1000
    2.85691 0.00194403 -5.90213e-07 8.4096e-11 -4.49e-15 -10976.8 6.22265 
    3.76272 -0.000787587 1.93486e-06 -3.14926e-10 -3.04729e-13 -11198.7 1.64272 
;
products 	1	15.5622
    200	6000	1000
    2.88718 0.00149854 -4.13279e-07 5.6713e-11 -2.97458e-15 -6924.87 3.33352 
    3.19724 0.00270794 -6.60173e-06 7.84657e-09 -3.12383e-12 -7100.1 1.26011 
;
Tad = 1794.11

phi = 2.92
ft = 0.0789293
fuel fuel	1	2.01588
    200	6000	1000
    2.93283 0.000826598 -1.46401e-07 1.54099e-11 -6.88796e-16 -813.056 -1.02432 
    2.3443 0.00798042 -1.94779e-05 2.0157e-08 -7.37603e-12 -917.924 0.683002 
;
oxidant 	1	28.8504
    200	6000	1000
    3.10131 0.00124137 -4.18816e-07 6.64158e-11 -3.91274e-15 -985.266 5.35597 
    3.58378 -0.000727005 1.67057e-06 -1.09203e-10 -4.31765e-13 -1050.53 3.11239 
;
reactants 	1	14.0688
    200	6000	1000
    3.0085 0.0010129 -2.68757e-07 3.83195e-11 -2.13685e-15 -890.405 1.84142 
    2.90102 0.00406943 -9.97896e-06 1.10543e-08 -4.25697e-12 -977.485 1.77417 
;
burntProducts 	1	24.543
    200	6000	1000
    2.85691 0.00194403 -5.90213e-07 8.4096e-11 -4.49e-15 -10976.8 6.22265 
    3.76272 -0.000787587 1.93486e-06 -3.14926e-10 -3.04729e-13 -11198.7 1.64272 
;
products 	1	15.534
    200	6000	1000
    2.88727 0.00149714 -4.12723e-07 5.6627e-11 -2.96982e-15 -6912.14 3.32444 
    3.19546 0.00271892 -6.62855e-06 7.87221e-09 -3.13269e-12 -7087.22 1.25891 
;
Tad = 1791.58

phi = 2.93
ft = 0.0791782
fuel fuel	1	2.01588
    200	6000	1000
    2.93283 0.000826598 -1.46401e-07 1.54099e-11 -6.88796e-16 -813.056 -1.02432 
    2.3443 0.00798042 -1.94779e-05 2.0157e-08 -7.37603e-12 -917.924 0.683002 
;
oxidant 	1	28.8504
    200	6000	1000
    3.10131 0.00124137 -4.18816e-07 6.64158e-11 -3.91274e-15 -985.266 5.35597 
    3.58378 -0.000727005 1.67057e-06 -1.09203e-10 -4.31765e-13 -1050.53 3.11239 
;
reactants 	1	14.0461
    200	6000	1000
    3.00836 0.00101255 -2.68527e-07 3.82763e-11 -2.13412e-15 -890.259 1.83603 
    2.89997 0.0040768 -9.99684e-06 1.10714e-08 -4.26285e-12 -977.372 1.77212 
;
burntProducts 	1	24.543
    200	6000	1000
    2.85691 0.00194403 -5.90213e-07 8.4096e-11 -4.49e-15 -10976.8 6.22265 
    3.76272 -0.000787587 1.93486e-06 -3.14926e-10 -3.04729e-13 -11198.7 1.64272 
;
products 	1	15.5059
    200	6000	1000
    2.88737 0.00149575 -4.12169e-07 5.65413e-11 -2.96508e-15 -6899.46 3.3154 
    3.19369 0.00272986 -6.65526e-06 7.89774e-09 -3.14151e-12 -7074.4 1.25771 
;
Tad = 1789.05

phi = 2.94
ft = 0.0794269
fuel fuel	1	2.01588
    200	6000	1000
    2.93283 0.000826598 -1.46401e-07 1.54099e-11 -6.88796e-16 -813.056 -1.02432 
    2.3443 0.00798042 -1.94779e-05 2.0157e-08 -7.37603e-12 -917.924 0.683002 
;
oxidant 	1	28.8504
    200	6000	1000
    3.10131 0.00124137 -4.18816e-07 6.64158e-11 -3.91274e-15 -985.266 5.35597 
    3.58378 -0.000727005 1.67057e-06 -1.09203e-10 -4.31765e-13 -1050.53 3.11239 
;
reactants 	1	14.0234
    200	6000	1000
    3.00822 0.0010122 -2.68297e-07 3.82334e-11 -2.13141e-15 -890.114 1.83065 
    2.89893 0.00408413 -1.00147e-05 1.10885e-08 -4.2687e-12 -977.261 1.77007 
;
burntProducts 	1	24.543
    200	6000	1000
    2.85691 0.00194403 -5.90213e-07 8.4096e-11 -4.49e-15 -10976.8 6.22265 
    3.76272 -0.000787587 1.93486e-06 -3.14926e-10 -3.04729e-13 -11198.7 1.64272 
;
products 	1	15.4779
    200	6000	1000
    2.88746 0.00149436 -4.11618e-07 5.6456e-11 -2.96036e-15 -6886.84 3.3064 
    3.19193 0.00274075 -6.68186e-06 7.92317e-09 -3.15029e-12 -7061.63 1.25652 
;
Tad = 1786.53

phi = 2.95
ft = 0.0796756
fuel fuel	1	2.01588
    200	6000	1000
    2.93283 0.000826598 -1.46401e-07 1.54099e-11 -6.88796e-16 -813.056 -1.02432 
    2.3443 0.00798042 -1.94779e-05 2.0157e-08 -7.37603e-12 -917.924 0.683002 
;
oxidant 	1	28.8504
    200	6000	1000
    3.10131 0.00124137 -4.18816e-07 6.64158e-11 -3.91274e-15 -985.266 5.35597 
    3.58378 -0.000727005 1.67057e-06 -1.09203e-10 -4.31765e-13 -1050.53 3.11239 
;
reactants 	1	14.0009
    200	6000	1000
    3.00808 0.00101185 -2.68069e-07 3.81905e-11 -2.1287e-15 -889.97 1.8253 
    2.89789 0.00409144 -1.00324e-05 1.11055e-08 -4.27453e-12 -977.149 1.76803 
;
burntProducts 	1	24.543
    200	6000	1000
    2.85691 0.00194403 -5.90213e-07 8.4096e-11 -4.49e-15 -10976.8 6.22265 
    3.76272 -0.000787587 1.93486e-06 -3.14926e-10 -3.04729e-13 -11198.7 1.64272 
;
products 	1	15.45
    200	6000	1000
    2.88756 0.00149298 -4.11069e-07 5.6371e-11 -2.95566e-15 -6874.26 3.29743 
    3.19018 0.0027516 -6.70835e-06 7.94849e-09 -3.15904e-12 -7048.91 1.25533 
;
Tad = 1784.02

phi = 2.96
ft = 0.0799241
fuel fuel	1	2.01588
    200	6000	1000
    2.93283 0.000826598 -1.46401e-07 1.54099e-11 -6.88796e-16 -813.056 -1.02432 
    2.3443 0.00798042 -1.94779e-05 2.0157e-08 -7.37603e-12 -917.924 0.683002 
;
oxidant 	1	28.8504
    200	6000	1000
    3.10131 0.00124137 -4.18816e-07 6.64158e-11 -3.91274e-15 -985.266 5.35597 
    3.58378 -0.000727005 1.67057e-06 -1.09203e-10 -4.31765e-13 -1050.53 3.11239 
;
reactants 	1	13.9785
    200	6000	1000
    3.00794 0.0010115 -2.67841e-07 3.81479e-11 -2.126e-15 -889.826 1.81996 
    2.89685 0.00409872 -1.00501e-05 1.11225e-08 -4.28033e-12 -977.038 1.766 
;
burntProducts 	1	24.543
    200	6000	1000
    2.85691 0.00194403 -5.90213e-07 8.4096e-11 -4.49e-15 -10976.8 6.22265 
    3.76272 -0.000787587 1.93486e-06 -3.14926e-10 -3.04729e-13 -11198.7 1.64272 
;
products 	1	15.4223
    200	6000	1000
    2.88765 0.0014916 -4.10522e-07 5.62864e-11 -2.95097e-15 -6861.74 3.28851 
    3.18843 0.0027624 -6.73472e-06 7.97371e-09 -3.16775e-12 -7036.25 1.25415 
;
Tad = 1781.52

phi = 2.97
ft = 0.0801724
fuel fuel	1	2.01588
    200	6000	1000
    2.93283 0.000826598 -1.46401e-07 1.54099e-11 -6.88796e-16 -813.056 -1.02432 
    2.3443 0.00798042 -1.94779e-05 2.0157e-08 -7.37603e-12 -917.924 0.683002 
;
oxidant 	1	28.8504
    200	6000	1000
    3.10131 0.00124137 -4.18816e-07 6.64158e-11 -3.91274e-15 -985.266 5.35597 
    3.58378 -0.000727005 1.67057e-06 -1.09203e-10 -4.31765e-13 -1050.53 3.11239 
;
reactants 	1	13.9561
    200	6000	1000
    3.0078 0.00101116 -2.67614e-07 3.81054e-11 -2.12332e-15 -889.682 1.81464 
    2.89582 0.00410598 -1.00677e-05 1.11394e-08 -4.28612e-12 -976.928 1.76398 
;
burntProducts 	1	24.543
    200	6000	1000
    2.85691 0.00194403 -5.90213e-07 8.4096e-11 -4.49e-15 -10976.8 6.22265 
    3.76272 -0.000787587 1.93486e-06 -3.14926e-10 -3.04729e-13 -11198.7 1.64272 
;
products 	1	15.3946
    200	6000	1000
    2.88774 0.00149023 -4.09978e-07 5.62021e-11 -2.94631e-15 -6849.27 3.27962 
    3.18669 0.00277315 -6.76099e-06 7.99883e-09 -3.17642e-12 -7023.64 1.25297 
;
Tad = 1779.02

phi = 2.98
ft = 0.0804207
fuel fuel	1	2.01588
    200	6000	1000
    2.93283 0.000826598 -1.46401e-07 1.54099e-11 -6.88796e-16 -813.056 -1.02432 
    2.3443 0.00798042 -1.94779e-05 2.0157e-08 -7.37603e-12 -917.924 0.683002 
;
oxidant 	1	28.8504
    200	6000	1000
    3.10131 0.00124137 -4.18816e-07 6.64158e-11 -3.91274e-15 -985.266 5.35597 
    3.58378 -0.000727005 1.67057e-06 -1.09203e-10 -4.31765e-13 -1050.53 3.11239 
;
reactants 	1	13.9339
    200	6000	1000
    3.00766 0.00101081 -2.67388e-07 3.80631e-11 -2.12064e-15 -889.539 1.80935 
    2.89479 0.00411321 -1.00853e-05 1.11562e-08 -4.29188e-12 -976.818 1.76196 
;
burntProducts 	1	24.543
    200	6000	1000
    2.85691 0.00194403 -5.90213e-07 8.4096e-11 -4.49e-15 -10976.8 6.22265 
    3.76272 -0.000787587 1.93486e-06 -3.14926e-10 -3.04729e-13 -11198.7 1.64272 
;
products 	1	15.3671
    200	6000	1000
    2.88784 0.00148887 -4.09436e-07 5.61182e-11 -2.94167e-15 -6836.86 3.27076 
    3.18496 0.00278387 -6.78716e-06 8.02384e-09 -3.18506e-12 -7011.08 1.2518 
;
Tad = 1776.54

phi = 2.99
ft = 0.0806688
fuel fuel	1	2.01588
    200	6000	1000
    2.93283 0.000826598 -1.46401e-07 1.54099e-11 -6.88796e-16 -813.056 -1.02432 
    2.3443 0.00798042 -1.94779e-05 2.0157e-08 -7.37603e-12 -917.924 0.683002 
;
oxidant 	1	28.8504
    200	6000	1000
    3.10131 0.00124137 -4.18816e-07 6.64158e-11 -3.91274e-15 -985.266 5.35597 
    3.58378 -0.000727005 1.67057e-06 -1.09203e-10 -4.31765e-13 -1050.53 3.11239 
;
reactants 	1	13.9117
    200	6000	1000
    3.00752 0.00101047 -2.67163e-07 3.80209e-11 -2.11798e-15 -889.397 1.80407 
    2.89376 0.00412041 -1.01028e-05 1.11729e-08 -4.29763e-12 -976.708 1.75995 
;
burntProducts 	1	24.543
    200	6000	1000
    2.85691 0.00194403 -5.90213e-07 8.4096e-11 -4.49e-15 -10976.8 6.22265 
    3.76272 -0.000787587 1.93486e-06 -3.14926e-10 -3.04729e-13 -11198.7 1.64272 
;
products 	1	15.3397
    200	6000	1000
    2.88793 0.00148751 -4.08896e-07 5.60347e-11 -2.93704e-15 -6824.49 3.26194 
    3.18323 0.00279453 -6.81321e-06 8.04875e-09 -3.19367e-12 -6998.57 1.25063 
;
Tad = 1774.06

phi = 3
ft = 0.0809167
fuel fuel	1	2.01588
    200	6000	1000
    2.93283 0.000826598 -1.46401e-07 1.54099e-11 -6.88796e-16 -813.056 -1.02432 
    2.3443 0.00798042 -1.94779e-05 2.0157e-08 -7.37603e-12 -917.924 0.683002 
;
oxidant 	1	28.8504
    200	6000	1000
    3.10131 0.00124137 -4.18816e-07 6.64158e-11 -3.91274e-15 -985.266 5.35597 
    3.58378 -0.000727005 1.67057e-06 -1.09203e-10 -4.31765e-13 -1050.53 3.11239 
;
reactants 	1	13.8896
    200	6000	1000
    3.00738 0.00101013 -2.66938e-07 3.79789e-11 -2.11532e-15 -889.255 1.79882 
    2.89274 0.00412758 -1.01202e-05 1.11896e-08 -4.30335e-12 -976.599 1.75795 
;
burntProducts 	1	24.543
    200	6000	1000
    2.85691 0.00194403 -5.90213e-07 8.4096e-11 -4.49e-15 -10976.8 6.22265 
    3.76272 -0.000787587 1.93486e-06 -3.14926e-10 -3.04729e-13 -11198.7 1.64272 
;
products 	1	15.3124
    200	6000	1000
    2.88802 0.00148615 -4.08358e-07 5.59514e-11 -2.93243e-15 -6812.17 3.25316 
    3.18151 0.00280516 -6.83916e-06 8.07356e-09 -3.20224e-12 -6986.11 1.24947 
;
Tad = 1771.6


end
