/*---------------------------------------------------------------------------*\
| =========                 |                                                 |
| \\      /  F ield         | OpenFOAM: The Open Source CFD Toolbox           |
|  \\    /   O peration     | Version:  1.6                                   |
|   \\  /    A nd           | Web:      www.OpenFOAM.com                      |
|    \\/     M anipulation  |                                                 |
\*---------------------------------------------------------------------------*/
Exec   : adiabaticFlameT -case . controlDict
Date   : Jul 14 2008
Time   : 14:36:14
Host   : auglx106
PID    : 21199
Case   : ./.
nProcs : 1

// * * * * * * * * * * * * * * * * * * * * * * * * * * * * * * * * * * * * * //

Reading Burcat data dictionary
stoichiometricAirFuelMassRatio stoichiometricAirFuelMassRatio [0 0 0 0 0 0 0] 17.1271;
phi = 0.01
ft = 0.00058353
fuel fuel	1	16.0428
    200	6000	1000
    1.63543 0.0100844 -3.36924e-06 5.34973e-10 -3.15528e-14 -10005.6 9.9937 
    5.14988 -0.013671 4.91801e-05 -4.84744e-08 1.66694e-11 -10246.6 -4.64132 
;
oxidant 	1	28.8504
    200	6000	1000
    3.10131 0.00124137 -4.18816e-07 6.64158e-11 -3.91274e-15 -985.266 5.35597 
    3.58378 -0.000727005 1.67057e-06 -1.09203e-10 -4.31765e-13 -1050.53 3.11239 
;
reactants 	1	28.837
    200	6000	1000
    3.09977 0.00125065 -4.2191e-07 6.69073e-11 -3.94173e-15 -994.727 5.36083 
    3.58542 -0.000740582 1.7204e-06 -1.59933e-10 -4.13828e-13 -1060.18 3.10426 
;
burntProducts 	1	27.6334
    200	6000	1000
    3.0602 0.00182422 -5.93878e-07 8.93807e-11 -4.97595e-15 -10998.7 5.32209 
    3.54628 0.000378279 2.02797e-07 9.31602e-10 -6.84016e-13 -11102.1 2.90098 
;
products 	1	28.837
    200	6000	1000
    3.10086 0.00124781 -4.20748e-07 6.66693e-11 -3.92448e-15 -1095.8 5.35559 
    3.58336 -0.000714805 1.65437e-06 -9.77145e-11 -4.3455e-13 -1161.48 3.11006 
;
Tad = 328.803

phi = 0.02
ft = 0.00116638
fuel fuel	1	16.0428
    200	6000	1000
    1.63543 0.0100844 -3.36924e-06 5.34973e-10 -3.15528e-14 -10005.6 9.9937 
    5.14988 -0.013671 4.91801e-05 -4.84744e-08 1.66694e-11 -10246.6 -4.64132 
;
oxidant 	1	28.8504
    200	6000	1000
    3.10131 0.00124137 -4.18816e-07 6.64158e-11 -3.91274e-15 -985.266 5.35597 
    3.58378 -0.000727005 1.67057e-06 -1.09203e-10 -4.31765e-13 -1050.53 3.11239 
;
reactants 	1	28.8236
    200	6000	1000
    3.09824 0.00125991 -4.24999e-07 6.73977e-11 -3.97066e-15 -1004.17 5.36568 
    3.58706 -0.000754131 1.77013e-06 -2.10557e-10 -3.95928e-13 -1069.8 3.09614 
;
burntProducts 	1	27.6334
    200	6000	1000
    3.0602 0.00182422 -5.93878e-07 8.93807e-11 -4.97595e-15 -10998.7 5.32209 
    3.54628 0.000378279 2.02797e-07 9.31602e-10 -6.84016e-13 -11102.1 2.90098 
;
products 	1	28.8236
    200	6000	1000
    3.1004 0.00125423 -4.22677e-07 6.69223e-11 -3.93619e-15 -1206.1 5.35522 
    3.58295 -0.00070263 1.6382e-06 -8.62497e-11 -4.37328e-13 -1272.2 3.10773 
;
Tad = 357.445

phi = 0.03
ft = 0.00174855
fuel fuel	1	16.0428
    200	6000	1000
    1.63543 0.0100844 -3.36924e-06 5.34973e-10 -3.15528e-14 -10005.6 9.9937 
    5.14988 -0.013671 4.91801e-05 -4.84744e-08 1.66694e-11 -10246.6 -4.64132 
;
oxidant 	1	28.8504
    200	6000	1000
    3.10131 0.00124137 -4.18816e-07 6.64158e-11 -3.91274e-15 -985.266 5.35597 
    3.58378 -0.000727005 1.67057e-06 -1.09203e-10 -4.31765e-13 -1050.53 3.11239 
;
reactants 	1	28.8102
    200	6000	1000
    3.09671 0.00126914 -4.2808e-07 6.78871e-11 -3.99953e-15 -1013.59 5.37053 
    3.58869 -0.000767651 1.81975e-06 -2.61075e-10 -3.78066e-13 -1079.41 3.08804 
;
burntProducts 	1	27.6334
    200	6000	1000
    3.0602 0.00182422 -5.93878e-07 8.93807e-11 -4.97595e-15 -10998.7 5.32209 
    3.54628 0.000378279 2.02797e-07 9.31602e-10 -6.84016e-13 -11102.1 2.90098 
;
products 	1	28.8102
    200	6000	1000
    3.09995 0.00126064 -4.24601e-07 6.71747e-11 -3.94788e-15 -1316.17 5.35485 
    3.58254 -0.00069048 1.62206e-06 -7.48089e-11 -4.40101e-13 -1382.69 3.1054 
;
Tad = 385.907

phi = 0.04
ft = 0.00233004
fuel fuel	1	16.0428
    200	6000	1000
    1.63543 0.0100844 -3.36924e-06 5.34973e-10 -3.15528e-14 -10005.6 9.9937 
    5.14988 -0.013671 4.91801e-05 -4.84744e-08 1.66694e-11 -10246.6 -4.64132 
;
oxidant 	1	28.8504
    200	6000	1000
    3.10131 0.00124137 -4.18816e-07 6.64158e-11 -3.91274e-15 -985.266 5.35597 
    3.58378 -0.000727005 1.67057e-06 -1.09203e-10 -4.31765e-13 -1050.53 3.11239 
;
reactants 	1	28.7968
    200	6000	1000
    3.09518 0.00127836 -4.31156e-07 6.83755e-11 -4.02834e-15 -1022.99 5.37536 
    3.59033 -0.000781143 1.86927e-06 -3.11488e-10 -3.60241e-13 -1088.99 3.07996 
;
burntProducts 	1	27.6334
    200	6000	1000
    3.0602 0.00182422 -5.93878e-07 8.93807e-11 -4.97595e-15 -10998.7 5.32209 
    3.54628 0.000378279 2.02797e-07 9.31602e-10 -6.84016e-13 -11102.1 2.90098 
;
products 	1	28.7968
    200	6000	1000
    3.0995 0.00126703 -4.26521e-07 6.74266e-11 -3.95954e-15 -1426.01 5.35447 
    3.58213 -0.000678356 1.60596e-06 -6.33921e-11 -4.42868e-13 -1492.95 3.10308 
;
Tad = 414.173

phi = 0.05
ft = 0.00291086
fuel fuel	1	16.0428
    200	6000	1000
    1.63543 0.0100844 -3.36924e-06 5.34973e-10 -3.15528e-14 -10005.6 9.9937 
    5.14988 -0.013671 4.91801e-05 -4.84744e-08 1.66694e-11 -10246.6 -4.64132 
;
oxidant 	1	28.8504
    200	6000	1000
    3.10131 0.00124137 -4.18816e-07 6.64158e-11 -3.91274e-15 -985.266 5.35597 
    3.58378 -0.000727005 1.67057e-06 -1.09203e-10 -4.31765e-13 -1050.53 3.11239 
;
reactants 	1	28.7835
    200	6000	1000
    3.09365 0.00128756 -4.34225e-07 6.88629e-11 -4.05709e-15 -1032.38 5.38019 
    3.59196 -0.000794606 1.91869e-06 -3.61794e-10 -3.42453e-13 -1098.56 3.07189 
;
burntProducts 	1	27.6334
    200	6000	1000
    3.0602 0.00182422 -5.93878e-07 8.93807e-11 -4.97595e-15 -10998.7 5.32209 
    3.54628 0.000378279 2.02797e-07 9.31602e-10 -6.84016e-13 -11102.1 2.90098 
;
products 	1	28.7835
    200	6000	1000
    3.09905 0.00127341 -4.28437e-07 6.7678e-11 -3.97118e-15 -1535.62 5.3541 
    3.58172 -0.000666257 1.5899e-06 -5.19991e-11 -4.45629e-13 -1602.98 3.10077 
;
Tad = 442.229

phi = 0.06
ft = 0.00349099
fuel fuel	1	16.0428
    200	6000	1000
    1.63543 0.0100844 -3.36924e-06 5.34973e-10 -3.15528e-14 -10005.6 9.9937 
    5.14988 -0.013671 4.91801e-05 -4.84744e-08 1.66694e-11 -10246.6 -4.64132 
;
oxidant 	1	28.8504
    200	6000	1000
    3.10131 0.00124137 -4.18816e-07 6.64158e-11 -3.91274e-15 -985.266 5.35597 
    3.58378 -0.000727005 1.67057e-06 -1.09203e-10 -4.31765e-13 -1050.53 3.11239 
;
reactants 	1	28.7702
    200	6000	1000
    3.09213 0.00129674 -4.37287e-07 6.93493e-11 -4.08578e-15 -1041.74 5.385 
    3.59358 -0.000808042 1.96801e-06 -4.11996e-10 -3.24702e-13 -1108.1 3.06385 
;
burntProducts 	1	27.6334
    200	6000	1000
    3.0602 0.00182422 -5.93878e-07 8.93807e-11 -4.97595e-15 -10998.7 5.32209 
    3.54628 0.000378279 2.02797e-07 9.31602e-10 -6.84016e-13 -11102.1 2.90098 
;
products 	1	28.7702
    200	6000	1000
    3.0986 0.00127978 -4.3035e-07 6.79289e-11 -3.98279e-15 -1645 5.35373 
    3.58131 -0.000654184 1.57386e-06 -4.06299e-11 -4.48385e-13 -1712.78 3.09846 
;
Tad = 470.065

phi = 0.07
ft = 0.00407046
fuel fuel	1	16.0428
    200	6000	1000
    1.63543 0.0100844 -3.36924e-06 5.34973e-10 -3.15528e-14 -10005.6 9.9937 
    5.14988 -0.013671 4.91801e-05 -4.84744e-08 1.66694e-11 -10246.6 -4.64132 
;
oxidant 	1	28.8504
    200	6000	1000
    3.10131 0.00124137 -4.18816e-07 6.64158e-11 -3.91274e-15 -985.266 5.35597 
    3.58378 -0.000727005 1.67057e-06 -1.09203e-10 -4.31765e-13 -1050.53 3.11239 
;
reactants 	1	28.7569
    200	6000	1000
    3.09061 0.0013059 -4.40343e-07 6.98346e-11 -4.11441e-15 -1051.08 5.3898 
    3.5952 -0.000821449 2.01722e-06 -4.62094e-10 -3.06989e-13 -1117.63 3.05581 
;
burntProducts 	1	27.6334
    200	6000	1000
    3.0602 0.00182422 -5.93878e-07 8.93807e-11 -4.97595e-15 -10998.7 5.32209 
    3.54628 0.000378279 2.02797e-07 9.31602e-10 -6.84016e-13 -11102.1 2.90098 
;
products 	1	28.7569
    200	6000	1000
    3.09815 0.00128613 -4.32258e-07 6.81792e-11 -3.99438e-15 -1754.15 5.35336 
    3.5809 -0.000642135 1.55786e-06 -2.92844e-11 -4.51135e-13 -1822.35 3.09616 
;
Tad = 497.669

phi = 0.08
ft = 0.00464925
fuel fuel	1	16.0428
    200	6000	1000
    1.63543 0.0100844 -3.36924e-06 5.34973e-10 -3.15528e-14 -10005.6 9.9937 
    5.14988 -0.013671 4.91801e-05 -4.84744e-08 1.66694e-11 -10246.6 -4.64132 
;
oxidant 	1	28.8504
    200	6000	1000
    3.10131 0.00124137 -4.18816e-07 6.64158e-11 -3.91274e-15 -985.266 5.35597 
    3.58378 -0.000727005 1.67057e-06 -1.09203e-10 -4.31765e-13 -1050.53 3.11239 
;
reactants 	1	28.7437
    200	6000	1000
    3.0891 0.00131504 -4.43393e-07 7.03189e-11 -4.14298e-15 -1060.41 5.3946 
    3.59682 -0.000834829 2.06632e-06 -5.12087e-10 -2.89312e-13 -1127.13 3.0478 
;
burntProducts 	1	27.6334
    200	6000	1000
    3.0602 0.00182422 -5.93878e-07 8.93807e-11 -4.97595e-15 -10998.7 5.32209 
    3.54628 0.000378279 2.02797e-07 9.31602e-10 -6.84016e-13 -11102.1 2.90098 
;
products 	1	28.7437
    200	6000	1000
    3.09771 0.00129247 -4.34162e-07 6.8429e-11 -4.00595e-15 -1863.08 5.353 
    3.58049 -0.000630112 1.5419e-06 -1.79625e-11 -4.53879e-13 -1931.69 3.09386 
;
Tad = 525.034

phi = 0.09
ft = 0.00522737
fuel fuel	1	16.0428
    200	6000	1000
    1.63543 0.0100844 -3.36924e-06 5.34973e-10 -3.15528e-14 -10005.6 9.9937 
    5.14988 -0.013671 4.91801e-05 -4.84744e-08 1.66694e-11 -10246.6 -4.64132 
;
oxidant 	1	28.8504
    200	6000	1000
    3.10131 0.00124137 -4.18816e-07 6.64158e-11 -3.91274e-15 -985.266 5.35597 
    3.58378 -0.000727005 1.67057e-06 -1.09203e-10 -4.31765e-13 -1050.53 3.11239 
;
reactants 	1	28.7305
    200	6000	1000
    3.08759 0.00132416 -4.46436e-07 7.08022e-11 -4.17149e-15 -1069.71 5.39938 
    3.59844 -0.000848181 2.11533e-06 -5.61976e-10 -2.71672e-13 -1136.62 3.0398 
;
burntProducts 	1	27.6334
    200	6000	1000
    3.0602 0.00182422 -5.93878e-07 8.93807e-11 -4.97595e-15 -10998.7 5.32209 
    3.54628 0.000378279 2.02797e-07 9.31602e-10 -6.84016e-13 -11102.1 2.90098 
;
products 	1	28.7305
    200	6000	1000
    3.09726 0.0012988 -4.36063e-07 6.86783e-11 -4.01749e-15 -1971.78 5.35263 
    3.58008 -0.000618114 1.52597e-06 -6.66417e-12 -4.56617e-13 -2040.8 3.09156 
;
Tad = 552.153

phi = 0.1
ft = 0.00580481
fuel fuel	1	16.0428
    200	6000	1000
    1.63543 0.0100844 -3.36924e-06 5.34973e-10 -3.15528e-14 -10005.6 9.9937 
    5.14988 -0.013671 4.91801e-05 -4.84744e-08 1.66694e-11 -10246.6 -4.64132 
;
oxidant 	1	28.8504
    200	6000	1000
    3.10131 0.00124137 -4.18816e-07 6.64158e-11 -3.91274e-15 -985.266 5.35597 
    3.58378 -0.000727005 1.67057e-06 -1.09203e-10 -4.31765e-13 -1050.53 3.11239 
;
reactants 	1	28.7173
    200	6000	1000
    3.08608 0.00133326 -4.49473e-07 7.12845e-11 -4.19995e-15 -1079 5.40416 
    3.60005 -0.000861505 2.16424e-06 -6.11761e-10 -2.54069e-13 -1146.09 3.03182 
;
burntProducts 	1	27.6334
    200	6000	1000
    3.0602 0.00182422 -5.93878e-07 8.93807e-11 -4.97595e-15 -10998.7 5.32209 
    3.54628 0.000378279 2.02797e-07 9.31602e-10 -6.84016e-13 -11102.1 2.90098 
;
products 	1	28.7173
    200	6000	1000
    3.09681 0.00130511 -4.37959e-07 6.89271e-11 -4.029e-15 -2080.25 5.35226 
    3.57968 -0.00060614 1.51007e-06 4.61068e-12 -4.59349e-13 -2149.69 3.08927 
;
Tad = 579.022

phi = 0.11
ft = 0.00638159
fuel fuel	1	16.0428
    200	6000	1000
    1.63543 0.0100844 -3.36924e-06 5.34973e-10 -3.15528e-14 -10005.6 9.9937 
    5.14988 -0.013671 4.91801e-05 -4.84744e-08 1.66694e-11 -10246.6 -4.64132 
;
oxidant 	1	28.8504
    200	6000	1000
    3.10131 0.00124137 -4.18816e-07 6.64158e-11 -3.91274e-15 -985.266 5.35597 
    3.58378 -0.000727005 1.67057e-06 -1.09203e-10 -4.31765e-13 -1050.53 3.11239 
;
reactants 	1	28.7042
    200	6000	1000
    3.08457 0.00134235 -4.52504e-07 7.17659e-11 -4.22834e-15 -1088.26 5.40892 
    3.60166 -0.000874801 2.21304e-06 -6.61443e-10 -2.36502e-13 -1155.53 3.02386 
;
burntProducts 	1	27.6334
    200	6000	1000
    3.0602 0.00182422 -5.93878e-07 8.93807e-11 -4.97595e-15 -10998.7 5.32209 
    3.54628 0.000378279 2.02797e-07 9.31602e-10 -6.84016e-13 -11102.1 2.90098 
;
products 	1	28.7042
    200	6000	1000
    3.09637 0.00131141 -4.39852e-07 6.91753e-11 -4.0405e-15 -2188.5 5.3519 
    3.57927 -0.000594192 1.4942e-06 1.58621e-11 -4.62076e-13 -2258.35 3.08699 
;
Tad = 605.637

phi = 0.12
ft = 0.0069577
fuel fuel	1	16.0428
    200	6000	1000
    1.63543 0.0100844 -3.36924e-06 5.34973e-10 -3.15528e-14 -10005.6 9.9937 
    5.14988 -0.013671 4.91801e-05 -4.84744e-08 1.66694e-11 -10246.6 -4.64132 
;
oxidant 	1	28.8504
    200	6000	1000
    3.10131 0.00124137 -4.18816e-07 6.64158e-11 -3.91274e-15 -985.266 5.35597 
    3.58378 -0.000727005 1.67057e-06 -1.09203e-10 -4.31765e-13 -1050.53 3.11239 
;
reactants 	1	28.691
    200	6000	1000
    3.08307 0.00135141 -4.55528e-07 7.22462e-11 -4.25667e-15 -1097.51 5.41367 
    3.60326 -0.00088807 2.26174e-06 -7.11022e-10 -2.18971e-13 -1164.96 3.01591 
;
burntProducts 	1	27.6334
    200	6000	1000
    3.0602 0.00182422 -5.93878e-07 8.93807e-11 -4.97595e-15 -10998.7 5.32209 
    3.54628 0.000378279 2.02797e-07 9.31602e-10 -6.84016e-13 -11102.1 2.90098 
;
products 	1	28.691
    200	6000	1000
    3.09593 0.0013177 -4.4174e-07 6.94231e-11 -4.05197e-15 -2296.53 5.35153 
    3.57887 -0.000582268 1.47836e-06 2.70902e-11 -4.64798e-13 -2366.79 3.0847 
;
Tad = 631.997

phi = 0.13
ft = 0.00753314
fuel fuel	1	16.0428
    200	6000	1000
    1.63543 0.0100844 -3.36924e-06 5.34973e-10 -3.15528e-14 -10005.6 9.9937 
    5.14988 -0.013671 4.91801e-05 -4.84744e-08 1.66694e-11 -10246.6 -4.64132 
;
oxidant 	1	28.8504
    200	6000	1000
    3.10131 0.00124137 -4.18816e-07 6.64158e-11 -3.91274e-15 -985.266 5.35597 
    3.58378 -0.000727005 1.67057e-06 -1.09203e-10 -4.31765e-13 -1050.53 3.11239 
;
reactants 	1	28.6779
    200	6000	1000
    3.08157 0.00136046 -4.58547e-07 7.27255e-11 -4.28495e-15 -1106.74 5.41842 
    3.60487 -0.000901312 2.31034e-06 -7.60498e-10 -2.01477e-13 -1174.37 3.00798 
;
burntProducts 	1	27.6334
    200	6000	1000
    3.0602 0.00182422 -5.93878e-07 8.93807e-11 -4.97595e-15 -10998.7 5.32209 
    3.54628 0.000378279 2.02797e-07 9.31602e-10 -6.84016e-13 -11102.1 2.90098 
;
products 	1	28.6779
    200	6000	1000
    3.09548 0.00132397 -4.43625e-07 6.96703e-11 -4.06341e-15 -2404.33 5.35116 
    3.57846 -0.000570369 1.46256e-06 3.82951e-11 -4.67513e-13 -2475 3.08243 
;
Tad = 658.101

phi = 0.14
ft = 0.00810791
fuel fuel	1	16.0428
    200	6000	1000
    1.63543 0.0100844 -3.36924e-06 5.34973e-10 -3.15528e-14 -10005.6 9.9937 
    5.14988 -0.013671 4.91801e-05 -4.84744e-08 1.66694e-11 -10246.6 -4.64132 
;
oxidant 	1	28.8504
    200	6000	1000
    3.10131 0.00124137 -4.18816e-07 6.64158e-11 -3.91274e-15 -985.266 5.35597 
    3.58378 -0.000727005 1.67057e-06 -1.09203e-10 -4.31765e-13 -1050.53 3.11239 
;
reactants 	1	28.6649
    200	6000	1000
    3.08007 0.00136948 -4.61559e-07 7.32038e-11 -4.31316e-15 -1115.94 5.42315 
    3.60646 -0.000914525 2.35884e-06 -8.09872e-10 -1.8402e-13 -1183.75 3.00006 
;
burntProducts 	1	27.6334
    200	6000	1000
    3.0602 0.00182422 -5.93878e-07 8.93807e-11 -4.97595e-15 -10998.7 5.32209 
    3.54628 0.000378279 2.02797e-07 9.31602e-10 -6.84016e-13 -11102.1 2.90098 
;
products 	1	28.6649
    200	6000	1000
    3.09504 0.00133023 -4.45506e-07 6.9917e-11 -4.07484e-15 -2511.9 5.3508 
    3.57806 -0.000558495 1.44679e-06 4.94767e-11 -4.70223e-13 -2582.98 3.08016 
;
Tad = 683.95

phi = 0.15
ft = 0.00868202
fuel fuel	1	16.0428
    200	6000	1000
    1.63543 0.0100844 -3.36924e-06 5.34973e-10 -3.15528e-14 -10005.6 9.9937 
    5.14988 -0.013671 4.91801e-05 -4.84744e-08 1.66694e-11 -10246.6 -4.64132 
;
oxidant 	1	28.8504
    200	6000	1000
    3.10131 0.00124137 -4.18816e-07 6.64158e-11 -3.91274e-15 -985.266 5.35597 
    3.58378 -0.000727005 1.67057e-06 -1.09203e-10 -4.31765e-13 -1050.53 3.11239 
;
reactants 	1	28.6518
    200	6000	1000
    3.07858 0.00137849 -4.64564e-07 7.36812e-11 -4.34132e-15 -1125.13 5.42788 
    3.60806 -0.000927712 2.40724e-06 -8.59144e-10 -1.66598e-13 -1193.12 2.99216 
;
burntProducts 	1	27.6334
    200	6000	1000
    3.0602 0.00182422 -5.93878e-07 8.93807e-11 -4.97595e-15 -10998.7 5.32209 
    3.54628 0.000378279 2.02797e-07 9.31602e-10 -6.84016e-13 -11102.1 2.90098 
;
products 	1	28.6518
    200	6000	1000
    3.0946 0.00133648 -4.47382e-07 7.01632e-11 -4.08623e-15 -2619.26 5.35044 
    3.57766 -0.000546645 1.43106e-06 6.06353e-11 -4.72928e-13 -2690.75 3.07789 
;
Tad = 709.546

phi = 0.16
ft = 0.00925547
fuel fuel	1	16.0428
    200	6000	1000
    1.63543 0.0100844 -3.36924e-06 5.34973e-10 -3.15528e-14 -10005.6 9.9937 
    5.14988 -0.013671 4.91801e-05 -4.84744e-08 1.66694e-11 -10246.6 -4.64132 
;
oxidant 	1	28.8504
    200	6000	1000
    3.10131 0.00124137 -4.18816e-07 6.64158e-11 -3.91274e-15 -985.266 5.35597 
    3.58378 -0.000727005 1.67057e-06 -1.09203e-10 -4.31765e-13 -1050.53 3.11239 
;
reactants 	1	28.6388
    200	6000	1000
    3.07709 0.00138748 -4.67564e-07 7.41575e-11 -4.36942e-15 -1134.3 5.43259 
    3.60965 -0.000940871 2.45554e-06 -9.08314e-10 -1.49212e-13 -1202.47 2.98428 
;
burntProducts 	1	27.6334
    200	6000	1000
    3.0602 0.00182422 -5.93878e-07 8.93807e-11 -4.97595e-15 -10998.7 5.32209 
    3.54628 0.000378279 2.02797e-07 9.31602e-10 -6.84016e-13 -11102.1 2.90098 
;
products 	1	28.6388
    200	6000	1000
    3.09416 0.00134272 -4.49255e-07 7.04089e-11 -4.09761e-15 -2726.39 5.35008 
    3.57726 -0.00053482 1.41535e-06 7.17708e-11 -4.75627e-13 -2798.29 3.07563 
;
Tad = 734.89

phi = 0.17
ft = 0.00982825
fuel fuel	1	16.0428
    200	6000	1000
    1.63543 0.0100844 -3.36924e-06 5.34973e-10 -3.15528e-14 -10005.6 9.9937 
    5.14988 -0.013671 4.91801e-05 -4.84744e-08 1.66694e-11 -10246.6 -4.64132 
;
oxidant 	1	28.8504
    200	6000	1000
    3.10131 0.00124137 -4.18816e-07 6.64158e-11 -3.91274e-15 -985.266 5.35597 
    3.58378 -0.000727005 1.67057e-06 -1.09203e-10 -4.31765e-13 -1050.53 3.11239 
;
reactants 	1	28.6258
    200	6000	1000
    3.0756 0.00139646 -4.70557e-07 7.46329e-11 -4.39746e-15 -1143.46 5.4373 
    3.61124 -0.000954004 2.50374e-06 -9.57382e-10 -1.31862e-13 -1211.8 2.97641 
;
burntProducts 	1	27.6334
    200	6000	1000
    3.0602 0.00182422 -5.93878e-07 8.93807e-11 -4.97595e-15 -10998.7 5.32209 
    3.54628 0.000378279 2.02797e-07 9.31602e-10 -6.84016e-13 -11102.1 2.90098 
;
products 	1	28.6258
    200	6000	1000
    3.09372 0.00134894 -4.51124e-07 7.06541e-11 -4.10896e-15 -2833.3 5.34971 
    3.57686 -0.000523019 1.39968e-06 8.28833e-11 -4.7832e-13 -2905.61 3.07337 
;
Tad = 759.987

phi = 0.18
ft = 0.0104004
fuel fuel	1	16.0428
    200	6000	1000
    1.63543 0.0100844 -3.36924e-06 5.34973e-10 -3.15528e-14 -10005.6 9.9937 
    5.14988 -0.013671 4.91801e-05 -4.84744e-08 1.66694e-11 -10246.6 -4.64132 
;
oxidant 	1	28.8504
    200	6000	1000
    3.10131 0.00124137 -4.18816e-07 6.64158e-11 -3.91274e-15 -985.266 5.35597 
    3.58378 -0.000727005 1.67057e-06 -1.09203e-10 -4.31765e-13 -1050.53 3.11239 
;
reactants 	1	28.6128
    200	6000	1000
    3.07412 0.00140541 -4.73544e-07 7.51073e-11 -4.42545e-15 -1152.59 5.44199 
    3.61283 -0.000967109 2.55184e-06 -1.00635e-09 -1.14548e-13 -1221.11 2.96856 
;
burntProducts 	1	27.6334
    200	6000	1000
    3.0602 0.00182422 -5.93878e-07 8.93807e-11 -4.97595e-15 -10998.7 5.32209 
    3.54628 0.000378279 2.02797e-07 9.31602e-10 -6.84016e-13 -11102.1 2.90098 
;
products 	1	28.6128
    200	6000	1000
    3.09328 0.00135515 -4.5299e-07 7.08988e-11 -4.12029e-15 -2939.99 5.34935 
    3.57646 -0.000511242 1.38404e-06 9.39729e-11 -4.81007e-13 -3012.71 3.07112 
;
Tad = 784.841

phi = 0.19
ft = 0.0109718
fuel fuel	1	16.0428
    200	6000	1000
    1.63543 0.0100844 -3.36924e-06 5.34973e-10 -3.15528e-14 -10005.6 9.9937 
    5.14988 -0.013671 4.91801e-05 -4.84744e-08 1.66694e-11 -10246.6 -4.64132 
;
oxidant 	1	28.8504
    200	6000	1000
    3.10131 0.00124137 -4.18816e-07 6.64158e-11 -3.91274e-15 -985.266 5.35597 
    3.58378 -0.000727005 1.67057e-06 -1.09203e-10 -4.31765e-13 -1050.53 3.11239 
;
reactants 	1	28.5999
    200	6000	1000
    3.07264 0.00141434 -4.76525e-07 7.55807e-11 -4.45337e-15 -1161.7 5.44668 
    3.61441 -0.000980187 2.59985e-06 -1.05522e-09 -9.72695e-14 -1230.4 2.96073 
;
burntProducts 	1	27.6334
    200	6000	1000
    3.0602 0.00182422 -5.93878e-07 8.93807e-11 -4.97595e-15 -10998.7 5.32209 
    3.54628 0.000378279 2.02797e-07 9.31602e-10 -6.84016e-13 -11102.1 2.90098 
;
products 	1	28.5999
    200	6000	1000
    3.09285 0.00136135 -4.54851e-07 7.1143e-11 -4.1316e-15 -3046.47 5.34899 
    3.57606 -0.00049949 1.36844e-06 1.0504e-10 -4.8369e-13 -3119.58 3.06887 
;
Tad = 809.456

phi = 0.2
ft = 0.0115426
fuel fuel	1	16.0428
    200	6000	1000
    1.63543 0.0100844 -3.36924e-06 5.34973e-10 -3.15528e-14 -10005.6 9.9937 
    5.14988 -0.013671 4.91801e-05 -4.84744e-08 1.66694e-11 -10246.6 -4.64132 
;
oxidant 	1	28.8504
    200	6000	1000
    3.10131 0.00124137 -4.18816e-07 6.64158e-11 -3.91274e-15 -985.266 5.35597 
    3.58378 -0.000727005 1.67057e-06 -1.09203e-10 -4.31765e-13 -1050.53 3.11239 
;
reactants 	1	28.587
    200	6000	1000
    3.07116 0.00142326 -4.795e-07 7.60531e-11 -4.48124e-15 -1170.8 5.45135 
    3.61599 -0.000993238 2.64775e-06 -1.10398e-09 -8.00266e-14 -1239.68 2.95291 
;
burntProducts 	1	27.6334
    200	6000	1000
    3.0602 0.00182422 -5.93878e-07 8.93807e-11 -4.97595e-15 -10998.7 5.32209 
    3.54628 0.000378279 2.02797e-07 9.31602e-10 -6.84016e-13 -11102.1 2.90098 
;
products 	1	28.587
    200	6000	1000
    3.09241 0.00136753 -4.56709e-07 7.13867e-11 -4.14288e-15 -3152.72 5.34863 
    3.57566 -0.000487761 1.35286e-06 1.16084e-10 -4.86366e-13 -3226.24 3.06663 
;
Tad = 833.839

phi = 0.21
ft = 0.0121128
fuel fuel	1	16.0428
    200	6000	1000
    1.63543 0.0100844 -3.36924e-06 5.34973e-10 -3.15528e-14 -10005.6 9.9937 
    5.14988 -0.013671 4.91801e-05 -4.84744e-08 1.66694e-11 -10246.6 -4.64132 
;
oxidant 	1	28.8504
    200	6000	1000
    3.10131 0.00124137 -4.18816e-07 6.64158e-11 -3.91274e-15 -985.266 5.35597 
    3.58378 -0.000727005 1.67057e-06 -1.09203e-10 -4.31765e-13 -1050.53 3.11239 
;
reactants 	1	28.5741
    200	6000	1000
    3.06968 0.00143216 -4.82469e-07 7.65246e-11 -4.50906e-15 -1179.87 5.45602 
    3.61756 -0.00100626 2.69555e-06 -1.15265e-09 -6.28191e-14 -1248.93 2.94511 
;
burntProducts 	1	27.6334
    200	6000	1000
    3.0602 0.00182422 -5.93878e-07 8.93807e-11 -4.97595e-15 -10998.7 5.32209 
    3.54628 0.000378279 2.02797e-07 9.31602e-10 -6.84016e-13 -11102.1 2.90098 
;
products 	1	28.5741
    200	6000	1000
    3.09197 0.00137371 -4.58563e-07 7.16299e-11 -4.15414e-15 -3258.75 5.34827 
    3.57526 -0.000476057 1.33732e-06 1.27105e-10 -4.89037e-13 -3332.68 3.06439 
;
Tad = 857.995

phi = 0.22
ft = 0.0126822
fuel fuel	1	16.0428
    200	6000	1000
    1.63543 0.0100844 -3.36924e-06 5.34973e-10 -3.15528e-14 -10005.6 9.9937 
    5.14988 -0.013671 4.91801e-05 -4.84744e-08 1.66694e-11 -10246.6 -4.64132 
;
oxidant 	1	28.8504
    200	6000	1000
    3.10131 0.00124137 -4.18816e-07 6.64158e-11 -3.91274e-15 -985.266 5.35597 
    3.58378 -0.000727005 1.67057e-06 -1.09203e-10 -4.31765e-13 -1050.53 3.11239 
;
reactants 	1	28.5612
    200	6000	1000
    3.06821 0.00144104 -4.85432e-07 7.69951e-11 -4.53681e-15 -1188.93 5.46068 
    3.61914 -0.00101926 2.74326e-06 -1.20121e-09 -4.56469e-14 -1258.16 2.93732 
;
burntProducts 	1	27.6334
    200	6000	1000
    3.0602 0.00182422 -5.93878e-07 8.93807e-11 -4.97595e-15 -10998.7 5.32209 
    3.54628 0.000378279 2.02797e-07 9.31602e-10 -6.84016e-13 -11102.1 2.90098 
;
products 	1	28.5612
    200	6000	1000
    3.09154 0.00137986 -4.60412e-07 7.18725e-11 -4.16537e-15 -3364.57 5.34792 
    3.57487 -0.000464377 1.32181e-06 1.38104e-10 -4.91703e-13 -3438.9 3.06216 
;
Tad = 881.931

phi = 0.23
ft = 0.0132511
fuel fuel	1	16.0428
    200	6000	1000
    1.63543 0.0100844 -3.36924e-06 5.34973e-10 -3.15528e-14 -10005.6 9.9937 
    5.14988 -0.013671 4.91801e-05 -4.84744e-08 1.66694e-11 -10246.6 -4.64132 
;
oxidant 	1	28.8504
    200	6000	1000
    3.10131 0.00124137 -4.18816e-07 6.64158e-11 -3.91274e-15 -985.266 5.35597 
    3.58378 -0.000727005 1.67057e-06 -1.09203e-10 -4.31765e-13 -1050.53 3.11239 
;
reactants 	1	28.5484
    200	6000	1000
    3.06674 0.0014499 -4.88388e-07 7.74646e-11 -4.56451e-15 -1197.97 5.46533 
    3.62071 -0.00103223 2.79087e-06 -1.24968e-09 -2.85099e-14 -1267.38 2.92955 
;
burntProducts 	1	27.6334
    200	6000	1000
    3.0602 0.00182422 -5.93878e-07 8.93807e-11 -4.97595e-15 -10998.7 5.32209 
    3.54628 0.000378279 2.02797e-07 9.31602e-10 -6.84016e-13 -11102.1 2.90098 
;
products 	1	28.5484
    200	6000	1000
    3.09111 0.00138601 -4.62259e-07 7.21147e-11 -4.17658e-15 -3470.17 5.34756 
    3.57447 -0.000452721 1.30633e-06 1.4908e-10 -4.94363e-13 -3544.9 3.05993 
;
Tad = 905.653

phi = 0.24
ft = 0.0138192
fuel fuel	1	16.0428
    200	6000	1000
    1.63543 0.0100844 -3.36924e-06 5.34973e-10 -3.15528e-14 -10005.6 9.9937 
    5.14988 -0.013671 4.91801e-05 -4.84744e-08 1.66694e-11 -10246.6 -4.64132 
;
oxidant 	1	28.8504
    200	6000	1000
    3.10131 0.00124137 -4.18816e-07 6.64158e-11 -3.91274e-15 -985.266 5.35597 
    3.58378 -0.000727005 1.67057e-06 -1.09203e-10 -4.31765e-13 -1050.53 3.11239 
;
reactants 	1	28.5356
    200	6000	1000
    3.06528 0.00145874 -4.91339e-07 7.79332e-11 -4.59215e-15 -1206.99 5.46996 
    3.62227 -0.00104518 2.83838e-06 -1.29805e-09 -1.1408e-14 -1276.58 2.9218 
;
burntProducts 	1	27.6334
    200	6000	1000
    3.0602 0.00182422 -5.93878e-07 8.93807e-11 -4.97595e-15 -10998.7 5.32209 
    3.54628 0.000378279 2.02797e-07 9.31602e-10 -6.84016e-13 -11102.1 2.90098 
;
products 	1	28.5356
    200	6000	1000
    3.09067 0.00139215 -4.64101e-07 7.23564e-11 -4.18777e-15 -3575.55 5.3472 
    3.57408 -0.000441089 1.29088e-06 1.60034e-10 -4.97018e-13 -3650.69 3.0577 
;
Tad = 929.169

phi = 0.25
ft = 0.0143868
fuel fuel	1	16.0428
    200	6000	1000
    1.63543 0.0100844 -3.36924e-06 5.34973e-10 -3.15528e-14 -10005.6 9.9937 
    5.14988 -0.013671 4.91801e-05 -4.84744e-08 1.66694e-11 -10246.6 -4.64132 
;
oxidant 	1	28.8504
    200	6000	1000
    3.10131 0.00124137 -4.18816e-07 6.64158e-11 -3.91274e-15 -985.266 5.35597 
    3.58378 -0.000727005 1.67057e-06 -1.09203e-10 -4.31765e-13 -1050.53 3.11239 
;
reactants 	1	28.5228
    200	6000	1000
    3.06381 0.00146757 -4.94283e-07 7.84008e-11 -4.61973e-15 -1215.99 5.47459 
    3.62384 -0.00105809 2.88579e-06 -1.34632e-09 5.65888e-15 -1285.75 2.91406 
;
burntProducts 	1	27.6334
    200	6000	1000
    3.0602 0.00182422 -5.93878e-07 8.93807e-11 -4.97595e-15 -10998.7 5.32209 
    3.54628 0.000378279 2.02797e-07 9.31602e-10 -6.84016e-13 -11102.1 2.90098 
;
products 	1	28.5228
    200	6000	1000
    3.09024 0.00139827 -4.6594e-07 7.25976e-11 -4.19894e-15 -3680.72 5.34685 
    3.57368 -0.00042948 1.27547e-06 1.70965e-10 -4.99667e-13 -3756.26 3.05548 
;
Tad = 952.486

phi = 0.26
ft = 0.0149536
fuel fuel	1	16.0428
    200	6000	1000
    1.63543 0.0100844 -3.36924e-06 5.34973e-10 -3.15528e-14 -10005.6 9.9937 
    5.14988 -0.013671 4.91801e-05 -4.84744e-08 1.66694e-11 -10246.6 -4.64132 
;
oxidant 	1	28.8504
    200	6000	1000
    3.10131 0.00124137 -4.18816e-07 6.64158e-11 -3.91274e-15 -985.266 5.35597 
    3.58378 -0.000727005 1.67057e-06 -1.09203e-10 -4.31765e-13 -1050.53 3.11239 
;
reactants 	1	28.51
    200	6000	1000
    3.06235 0.00147637 -4.97222e-07 7.88675e-11 -4.64726e-15 -1224.98 5.47921 
    3.62539 -0.00107099 2.93311e-06 -1.39449e-09 2.26909e-14 -1294.91 2.90634 
;
burntProducts 	1	27.6334
    200	6000	1000
    3.0602 0.00182422 -5.93878e-07 8.93807e-11 -4.97595e-15 -10998.7 5.32209 
    3.54628 0.000378279 2.02797e-07 9.31602e-10 -6.84016e-13 -11102.1 2.90098 
;
products 	1	28.51
    200	6000	1000
    3.08981 0.00140438 -4.67775e-07 7.28383e-11 -4.21008e-15 -3785.67 5.34649 
    3.57329 -0.000417896 1.26008e-06 1.81874e-10 -5.02311e-13 -3861.61 3.05326 
;
Tad = 975.613

phi = 0.27
ft = 0.0155198
fuel fuel	1	16.0428
    200	6000	1000
    1.63543 0.0100844 -3.36924e-06 5.34973e-10 -3.15528e-14 -10005.6 9.9937 
    5.14988 -0.013671 4.91801e-05 -4.84744e-08 1.66694e-11 -10246.6 -4.64132 
;
oxidant 	1	28.8504
    200	6000	1000
    3.10131 0.00124137 -4.18816e-07 6.64158e-11 -3.91274e-15 -985.266 5.35597 
    3.58378 -0.000727005 1.67057e-06 -1.09203e-10 -4.31765e-13 -1050.53 3.11239 
;
reactants 	1	28.4973
    200	6000	1000
    3.0609 0.00148516 -5.00154e-07 7.93332e-11 -4.67473e-15 -1233.94 5.48382 
    3.62695 -0.00108385 2.98033e-06 -1.44256e-09 3.96881e-14 -1304.05 2.89863 
;
burntProducts 	1	27.6334
    200	6000	1000
    3.0602 0.00182422 -5.93878e-07 8.93807e-11 -4.97595e-15 -10998.7 5.32209 
    3.54628 0.000378279 2.02797e-07 9.31602e-10 -6.84016e-13 -11102.1 2.90098 
;
products 	1	28.4973
    200	6000	1000
    3.08938 0.00141047 -4.69606e-07 7.30785e-11 -4.2212e-15 -3890.41 5.34614 
    3.5729 -0.000406335 1.24473e-06 1.9276e-10 -5.0495e-13 -3966.75 3.05105 
;
Tad = 998.557

phi = 0.28
ft = 0.0160854
fuel fuel	1	16.0428
    200	6000	1000
    1.63543 0.0100844 -3.36924e-06 5.34973e-10 -3.15528e-14 -10005.6 9.9937 
    5.14988 -0.013671 4.91801e-05 -4.84744e-08 1.66694e-11 -10246.6 -4.64132 
;
oxidant 	1	28.8504
    200	6000	1000
    3.10131 0.00124137 -4.18816e-07 6.64158e-11 -3.91274e-15 -985.266 5.35597 
    3.58378 -0.000727005 1.67057e-06 -1.09203e-10 -4.31765e-13 -1050.53 3.11239 
;
reactants 	1	28.4846
    200	6000	1000
    3.05944 0.00149394 -5.03081e-07 7.9798e-11 -4.70215e-15 -1242.89 5.48842 
    3.6285 -0.00109669 3.02746e-06 -1.49053e-09 5.66506e-14 -1313.17 2.89094 
;
burntProducts 	1	27.6334
    200	6000	1000
    3.0602 0.00182422 -5.93878e-07 8.93807e-11 -4.97595e-15 -10998.7 5.32209 
    3.54628 0.000378279 2.02797e-07 9.31602e-10 -6.84016e-13 -11102.1 2.90098 
;
products 	1	28.4846
    200	6000	1000
    3.08895 0.00141656 -4.71433e-07 7.33182e-11 -4.2323e-15 -3994.94 5.34578 
    3.57251 -0.000394797 1.22941e-06 2.03625e-10 -5.07583e-13 -4071.67 3.04885 
;
Tad = 1021.32

phi = 0.29
ft = 0.0166503
fuel fuel	1	16.0428
    200	6000	1000
    1.63543 0.0100844 -3.36924e-06 5.34973e-10 -3.15528e-14 -10005.6 9.9937 
    5.14988 -0.013671 4.91801e-05 -4.84744e-08 1.66694e-11 -10246.6 -4.64132 
;
oxidant 	1	28.8504
    200	6000	1000
    3.10131 0.00124137 -4.18816e-07 6.64158e-11 -3.91274e-15 -985.266 5.35597 
    3.58378 -0.000727005 1.67057e-06 -1.09203e-10 -4.31765e-13 -1050.53 3.11239 
;
reactants 	1	28.4719
    200	6000	1000
    3.05799 0.00150269 -5.06001e-07 8.02618e-11 -4.72951e-15 -1251.82 5.49301 
    3.63006 -0.0011095 3.07449e-06 -1.5384e-09 7.35786e-14 -1322.28 2.88327 
;
burntProducts 	1	27.6334
    200	6000	1000
    3.0602 0.00182422 -5.93878e-07 8.93807e-11 -4.97595e-15 -10998.7 5.32209 
    3.54628 0.000378279 2.02797e-07 9.31602e-10 -6.84016e-13 -11102.1 2.90098 
;
products 	1	28.4719
    200	6000	1000
    3.08852 0.00142263 -4.73257e-07 7.35575e-11 -4.24338e-15 -4099.25 5.34543 
    3.57212 -0.000383283 1.21412e-06 2.14467e-10 -5.10211e-13 -4176.38 3.04664 
;
Tad = 1043.92

phi = 0.3
ft = 0.0172146
fuel fuel	1	16.0428
    200	6000	1000
    1.63543 0.0100844 -3.36924e-06 5.34973e-10 -3.15528e-14 -10005.6 9.9937 
    5.14988 -0.013671 4.91801e-05 -4.84744e-08 1.66694e-11 -10246.6 -4.64132 
;
oxidant 	1	28.8504
    200	6000	1000
    3.10131 0.00124137 -4.18816e-07 6.64158e-11 -3.91274e-15 -985.266 5.35597 
    3.58378 -0.000727005 1.67057e-06 -1.09203e-10 -4.31765e-13 -1050.53 3.11239 
;
reactants 	1	28.4593
    200	6000	1000
    3.05654 0.00151142 -5.08916e-07 8.07246e-11 -4.75682e-15 -1260.73 5.49759 
    3.6316 -0.00112229 3.12142e-06 -1.58618e-09 9.04721e-14 -1331.36 2.87561 
;
burntProducts 	1	27.6334
    200	6000	1000
    3.0602 0.00182422 -5.93878e-07 8.93807e-11 -4.97595e-15 -10998.7 5.32209 
    3.54628 0.000378279 2.02797e-07 9.31602e-10 -6.84016e-13 -11102.1 2.90098 
;
products 	1	28.4593
    200	6000	1000
    3.0881 0.00142869 -4.75077e-07 7.37962e-11 -4.25443e-15 -4203.35 5.34508 
    3.57173 -0.000371793 1.19886e-06 2.25287e-10 -5.12833e-13 -4280.88 3.04445 
;
Tad = 1066.34

phi = 0.31
ft = 0.0177782
fuel fuel	1	16.0428
    200	6000	1000
    1.63543 0.0100844 -3.36924e-06 5.34973e-10 -3.15528e-14 -10005.6 9.9937 
    5.14988 -0.013671 4.91801e-05 -4.84744e-08 1.66694e-11 -10246.6 -4.64132 
;
oxidant 	1	28.8504
    200	6000	1000
    3.10131 0.00124137 -4.18816e-07 6.64158e-11 -3.91274e-15 -985.266 5.35597 
    3.58378 -0.000727005 1.67057e-06 -1.09203e-10 -4.31765e-13 -1050.53 3.11239 
;
reactants 	1	28.4467
    200	6000	1000
    3.0551 0.00152014 -5.11825e-07 8.11866e-11 -4.78406e-15 -1269.62 5.50216 
    3.63315 -0.00113505 3.16826e-06 -1.63386e-09 1.07331e-13 -1340.43 2.86796 
;
burntProducts 	1	27.6334
    200	6000	1000
    3.0602 0.00182422 -5.93878e-07 8.93807e-11 -4.97595e-15 -10998.7 5.32209 
    3.54628 0.000378279 2.02797e-07 9.31602e-10 -6.84016e-13 -11102.1 2.90098 
;
products 	1	28.4467
    200	6000	1000
    3.08767 0.00143473 -4.76893e-07 7.40345e-11 -4.26546e-15 -4307.24 5.34473 
    3.57134 -0.000360326 1.18363e-06 2.36086e-10 -5.1545e-13 -4385.16 3.04225 
;
Tad = 1088.59

phi = 0.32
ft = 0.0183412
fuel fuel	1	16.0428
    200	6000	1000
    1.63543 0.0100844 -3.36924e-06 5.34973e-10 -3.15528e-14 -10005.6 9.9937 
    5.14988 -0.013671 4.91801e-05 -4.84744e-08 1.66694e-11 -10246.6 -4.64132 
;
oxidant 	1	28.8504
    200	6000	1000
    3.10131 0.00124137 -4.18816e-07 6.64158e-11 -3.91274e-15 -985.266 5.35597 
    3.58378 -0.000727005 1.67057e-06 -1.09203e-10 -4.31765e-13 -1050.53 3.11239 
;
reactants 	1	28.434
    200	6000	1000
    3.05366 0.00152884 -5.14727e-07 8.16476e-11 -4.81126e-15 -1278.5 5.50673 
    3.63469 -0.00114779 3.215e-06 -1.68145e-09 1.24156e-13 -1349.47 2.86033 
;
burntProducts 	1	27.6334
    200	6000	1000
    3.0602 0.00182422 -5.93878e-07 8.93807e-11 -4.97595e-15 -10998.7 5.32209 
    3.54628 0.000378279 2.02797e-07 9.31602e-10 -6.84016e-13 -11102.1 2.90098 
;
products 	1	28.434
    200	6000	1000
    3.08724 0.00144077 -4.78705e-07 7.42722e-11 -4.27647e-15 -4410.91 5.34438 
    3.57095 -0.000348882 1.16844e-06 2.46862e-10 -5.18062e-13 -4489.23 3.04006 
;
Tad = 1110.68

phi = 0.33
ft = 0.0189035
fuel fuel	1	16.0428
    200	6000	1000
    1.63543 0.0100844 -3.36924e-06 5.34973e-10 -3.15528e-14 -10005.6 9.9937 
    5.14988 -0.013671 4.91801e-05 -4.84744e-08 1.66694e-11 -10246.6 -4.64132 
;
oxidant 	1	28.8504
    200	6000	1000
    3.10131 0.00124137 -4.18816e-07 6.64158e-11 -3.91274e-15 -985.266 5.35597 
    3.58378 -0.000727005 1.67057e-06 -1.09203e-10 -4.31765e-13 -1050.53 3.11239 
;
reactants 	1	28.4215
    200	6000	1000
    3.05222 0.00153753 -5.17624e-07 8.21076e-11 -4.8384e-15 -1287.35 5.51128 
    3.63622 -0.00116049 3.26164e-06 -1.72893e-09 1.40947e-13 -1358.5 2.85272 
;
burntProducts 	1	27.6334
    200	6000	1000
    3.0602 0.00182422 -5.93878e-07 8.93807e-11 -4.97595e-15 -10998.7 5.32209 
    3.54628 0.000378279 2.02797e-07 9.31602e-10 -6.84016e-13 -11102.1 2.90098 
;
products 	1	28.4215
    200	6000	1000
    3.08682 0.00144679 -4.80514e-07 7.45095e-11 -4.28746e-15 -4514.38 5.34403 
    3.57056 -0.000337461 1.15327e-06 2.57616e-10 -5.20668e-13 -4593.09 3.03788 
;
Tad = 1132.6

phi = 0.34
ft = 0.0194652
fuel fuel	1	16.0428
    200	6000	1000
    1.63543 0.0100844 -3.36924e-06 5.34973e-10 -3.15528e-14 -10005.6 9.9937 
    5.14988 -0.013671 4.91801e-05 -4.84744e-08 1.66694e-11 -10246.6 -4.64132 
;
oxidant 	1	28.8504
    200	6000	1000
    3.10131 0.00124137 -4.18816e-07 6.64158e-11 -3.91274e-15 -985.266 5.35597 
    3.58378 -0.000727005 1.67057e-06 -1.09203e-10 -4.31765e-13 -1050.53 3.11239 
;
reactants 	1	28.4089
    200	6000	1000
    3.05078 0.00154619 -5.20515e-07 8.25667e-11 -4.86548e-15 -1296.19 5.51583 
    3.63776 -0.00117318 3.3082e-06 -1.77632e-09 1.57704e-13 -1367.51 2.84512 
;
burntProducts 	1	27.6334
    200	6000	1000
    3.0602 0.00182422 -5.93878e-07 8.93807e-11 -4.97595e-15 -10998.7 5.32209 
    3.54628 0.000378279 2.02797e-07 9.31602e-10 -6.84016e-13 -11102.1 2.90098 
;
products 	1	28.4089
    200	6000	1000
    3.0864 0.0014528 -4.8232e-07 7.47463e-11 -4.29842e-15 -4617.64 5.34368 
    3.57017 -0.000326064 1.13813e-06 2.68349e-10 -5.23269e-13 -4696.74 3.0357 
;
Tad = 1154.37

phi = 0.35
ft = 0.0200262
fuel fuel	1	16.0428
    200	6000	1000
    1.63543 0.0100844 -3.36924e-06 5.34973e-10 -3.15528e-14 -10005.6 9.9937 
    5.14988 -0.013671 4.91801e-05 -4.84744e-08 1.66694e-11 -10246.6 -4.64132 
;
oxidant 	1	28.8504
    200	6000	1000
    3.10131 0.00124137 -4.18816e-07 6.64158e-11 -3.91274e-15 -985.266 5.35597 
    3.58378 -0.000727005 1.67057e-06 -1.09203e-10 -4.31765e-13 -1050.53 3.11239 
;
reactants 	1	28.3964
    200	6000	1000
    3.04935 0.00155484 -5.234e-07 8.30249e-11 -4.89251e-15 -1305.01 5.52036 
    3.63929 -0.00118584 3.35465e-06 -1.82362e-09 1.74426e-13 -1376.51 2.83754 
;
burntProducts 	1	27.6334
    200	6000	1000
    3.0602 0.00182422 -5.93878e-07 8.93807e-11 -4.97595e-15 -10998.7 5.32209 
    3.54628 0.000378279 2.02797e-07 9.31602e-10 -6.84016e-13 -11102.1 2.90098 
;
products 	1	28.3964
    200	6000	1000
    3.08597 0.0014588 -4.84121e-07 7.49827e-11 -4.30936e-15 -4720.68 5.34333 
    3.56979 -0.000314689 1.12303e-06 2.7906e-10 -5.25865e-13 -4800.18 3.03352 
;
Tad = 1175.97

phi = 0.36
ft = 0.0205866
fuel fuel	1	16.0428
    200	6000	1000
    1.63543 0.0100844 -3.36924e-06 5.34973e-10 -3.15528e-14 -10005.6 9.9937 
    5.14988 -0.013671 4.91801e-05 -4.84744e-08 1.66694e-11 -10246.6 -4.64132 
;
oxidant 	1	28.8504
    200	6000	1000
    3.10131 0.00124137 -4.18816e-07 6.64158e-11 -3.91274e-15 -985.266 5.35597 
    3.58378 -0.000727005 1.67057e-06 -1.09203e-10 -4.31765e-13 -1050.53 3.11239 
;
reactants 	1	28.3839
    200	6000	1000
    3.04792 0.00156347 -5.2628e-07 8.34822e-11 -4.91948e-15 -1313.82 5.52489 
    3.64082 -0.00119847 3.40102e-06 -1.87082e-09 1.91115e-13 -1385.48 2.82997 
;
burntProducts 	1	27.6334
    200	6000	1000
    3.0602 0.00182422 -5.93878e-07 8.93807e-11 -4.97595e-15 -10998.7 5.32209 
    3.54628 0.000378279 2.02797e-07 9.31602e-10 -6.84016e-13 -11102.1 2.90098 
;
products 	1	28.3839
    200	6000	1000
    3.08555 0.00146478 -4.85919e-07 7.52185e-11 -4.32028e-15 -4823.52 5.34298 
    3.5694 -0.000303338 1.10796e-06 2.89749e-10 -5.28456e-13 -4903.41 3.03135 
;
Tad = 1197.42

phi = 0.37
ft = 0.0211464
fuel fuel	1	16.0428
    200	6000	1000
    1.63543 0.0100844 -3.36924e-06 5.34973e-10 -3.15528e-14 -10005.6 9.9937 
    5.14988 -0.013671 4.91801e-05 -4.84744e-08 1.66694e-11 -10246.6 -4.64132 
;
oxidant 	1	28.8504
    200	6000	1000
    3.10131 0.00124137 -4.18816e-07 6.64158e-11 -3.91274e-15 -985.266 5.35597 
    3.58378 -0.000727005 1.67057e-06 -1.09203e-10 -4.31765e-13 -1050.53 3.11239 
;
reactants 	1	28.3714
    200	6000	1000
    3.04649 0.00157208 -5.29153e-07 8.39385e-11 -4.9464e-15 -1322.6 5.5294 
    3.64234 -0.00121107 3.44729e-06 -1.91792e-09 2.0777e-13 -1394.44 2.82242 
;
burntProducts 	1	27.6334
    200	6000	1000
    3.0602 0.00182422 -5.93878e-07 8.93807e-11 -4.97595e-15 -10998.7 5.32209 
    3.54628 0.000378279 2.02797e-07 9.31602e-10 -6.84016e-13 -11102.1 2.90098 
;
products 	1	28.3714
    200	6000	1000
    3.08513 0.00147076 -4.87713e-07 7.54539e-11 -4.33118e-15 -4926.15 5.34263 
    3.56902 -0.000292009 1.09291e-06 3.00416e-10 -5.31041e-13 -5006.43 3.02919 
;
Tad = 1218.72

phi = 0.38
ft = 0.0217055
fuel fuel	1	16.0428
    200	6000	1000
    1.63543 0.0100844 -3.36924e-06 5.34973e-10 -3.15528e-14 -10005.6 9.9937 
    5.14988 -0.013671 4.91801e-05 -4.84744e-08 1.66694e-11 -10246.6 -4.64132 
;
oxidant 	1	28.8504
    200	6000	1000
    3.10131 0.00124137 -4.18816e-07 6.64158e-11 -3.91274e-15 -985.266 5.35597 
    3.58378 -0.000727005 1.67057e-06 -1.09203e-10 -4.31765e-13 -1050.53 3.11239 
;
reactants 	1	28.359
    200	6000	1000
    3.04506 0.00158067 -5.32021e-07 8.43939e-11 -4.97327e-15 -1331.37 5.53391 
    3.64387 -0.00122365 3.49347e-06 -1.96493e-09 2.24392e-13 -1403.38 2.81489 
;
burntProducts 	1	27.6334
    200	6000	1000
    3.0602 0.00182422 -5.93878e-07 8.93807e-11 -4.97595e-15 -10998.7 5.32209 
    3.54628 0.000378279 2.02797e-07 9.31602e-10 -6.84016e-13 -11102.1 2.90098 
;
products 	1	28.359
    200	6000	1000
    3.08471 0.00147672 -4.89504e-07 7.56888e-11 -4.34205e-15 -5028.58 5.34229 
    3.56864 -0.000280704 1.0779e-06 3.11062e-10 -5.33622e-13 -5109.25 3.02702 
;
Tad = 1239.87

phi = 0.39
ft = 0.022264
fuel fuel	1	16.0428
    200	6000	1000
    1.63543 0.0100844 -3.36924e-06 5.34973e-10 -3.15528e-14 -10005.6 9.9937 
    5.14988 -0.013671 4.91801e-05 -4.84744e-08 1.66694e-11 -10246.6 -4.64132 
;
oxidant 	1	28.8504
    200	6000	1000
    3.10131 0.00124137 -4.18816e-07 6.64158e-11 -3.91274e-15 -985.266 5.35597 
    3.58378 -0.000727005 1.67057e-06 -1.09203e-10 -4.31765e-13 -1050.53 3.11239 
;
reactants 	1	28.3466
    200	6000	1000
    3.04364 0.00158925 -5.34883e-07 8.48484e-11 -5.00008e-15 -1340.12 5.53841 
    3.64539 -0.00123621 3.53955e-06 -2.01185e-09 2.4098e-13 -1412.3 2.80736 
;
burntProducts 	1	27.6334
    200	6000	1000
    3.0602 0.00182422 -5.93878e-07 8.93807e-11 -4.97595e-15 -10998.7 5.32209 
    3.54628 0.000378279 2.02797e-07 9.31602e-10 -6.84016e-13 -11102.1 2.90098 
;
products 	1	28.3466
    200	6000	1000
    3.08429 0.00148267 -4.91291e-07 7.59232e-11 -4.35291e-15 -5130.8 5.34194 
    3.56825 -0.000269421 1.06292e-06 3.21687e-10 -5.36196e-13 -5211.86 3.02487 
;
Tad = 1260.87

phi = 0.4
ft = 0.0228218
fuel fuel	1	16.0428
    200	6000	1000
    1.63543 0.0100844 -3.36924e-06 5.34973e-10 -3.15528e-14 -10005.6 9.9937 
    5.14988 -0.013671 4.91801e-05 -4.84744e-08 1.66694e-11 -10246.6 -4.64132 
;
oxidant 	1	28.8504
    200	6000	1000
    3.10131 0.00124137 -4.18816e-07 6.64158e-11 -3.91274e-15 -985.266 5.35597 
    3.58378 -0.000727005 1.67057e-06 -1.09203e-10 -4.31765e-13 -1050.53 3.11239 
;
reactants 	1	28.3342
    200	6000	1000
    3.04222 0.00159781 -5.37739e-07 8.5302e-11 -5.02683e-15 -1348.85 5.5429 
    3.6469 -0.00124874 3.58554e-06 -2.05866e-09 2.57535e-13 -1421.2 2.79986 
;
burntProducts 	1	27.6334
    200	6000	1000
    3.0602 0.00182422 -5.93878e-07 8.93807e-11 -4.97595e-15 -10998.7 5.32209 
    3.54628 0.000378279 2.02797e-07 9.31602e-10 -6.84016e-13 -11102.1 2.90098 
;
products 	1	28.3342
    200	6000	1000
    3.08387 0.00148861 -4.93074e-07 7.61572e-11 -4.36374e-15 -5232.81 5.3416 
    3.56787 -0.000258161 1.04796e-06 3.3229e-10 -5.38766e-13 -5314.26 3.02271 
;
Tad = 1281.72

phi = 0.41
ft = 0.023379
fuel fuel	1	16.0428
    200	6000	1000
    1.63543 0.0100844 -3.36924e-06 5.34973e-10 -3.15528e-14 -10005.6 9.9937 
    5.14988 -0.013671 4.91801e-05 -4.84744e-08 1.66694e-11 -10246.6 -4.64132 
;
oxidant 	1	28.8504
    200	6000	1000
    3.10131 0.00124137 -4.18816e-07 6.64158e-11 -3.91274e-15 -985.266 5.35597 
    3.58378 -0.000727005 1.67057e-06 -1.09203e-10 -4.31765e-13 -1050.53 3.11239 
;
reactants 	1	28.3218
    200	6000	1000
    3.04081 0.00160636 -5.40589e-07 8.57547e-11 -5.05354e-15 -1357.56 5.54738 
    3.64841 -0.00126125 3.63144e-06 -2.10539e-09 2.74056e-13 -1430.08 2.79237 
;
burntProducts 	1	27.6334
    200	6000	1000
    3.0602 0.00182422 -5.93878e-07 8.93807e-11 -4.97595e-15 -10998.7 5.32209 
    3.54628 0.000378279 2.02797e-07 9.31602e-10 -6.84016e-13 -11102.1 2.90098 
;
products 	1	28.3218
    200	6000	1000
    3.08345 0.00149453 -4.94854e-07 7.63907e-11 -4.37455e-15 -5334.61 5.34125 
    3.56749 -0.000246924 1.03304e-06 3.42872e-10 -5.41331e-13 -5416.45 3.02056 
;
Tad = 1302.44

phi = 0.42
ft = 0.0239356
fuel fuel	1	16.0428
    200	6000	1000
    1.63543 0.0100844 -3.36924e-06 5.34973e-10 -3.15528e-14 -10005.6 9.9937 
    5.14988 -0.013671 4.91801e-05 -4.84744e-08 1.66694e-11 -10246.6 -4.64132 
;
oxidant 	1	28.8504
    200	6000	1000
    3.10131 0.00124137 -4.18816e-07 6.64158e-11 -3.91274e-15 -985.266 5.35597 
    3.58378 -0.000727005 1.67057e-06 -1.09203e-10 -4.31765e-13 -1050.53 3.11239 
;
reactants 	1	28.3094
    200	6000	1000
    3.03939 0.00161488 -5.43434e-07 8.62064e-11 -5.08018e-15 -1366.26 5.55185 
    3.64992 -0.00127373 3.67725e-06 -2.15202e-09 2.90544e-13 -1438.95 2.78489 
;
burntProducts 	1	27.6334
    200	6000	1000
    3.0602 0.00182422 -5.93878e-07 8.93807e-11 -4.97595e-15 -10998.7 5.32209 
    3.54628 0.000378279 2.02797e-07 9.31602e-10 -6.84016e-13 -11102.1 2.90098 
;
products 	1	28.3094
    200	6000	1000
    3.08304 0.00150045 -4.9663e-07 7.66237e-11 -4.38533e-15 -5436.21 5.34091 
    3.56711 -0.000235709 1.01815e-06 3.53432e-10 -5.4389e-13 -5518.44 3.01842 
;
Tad = 1323.01

phi = 0.43
ft = 0.0244915
fuel fuel	1	16.0428
    200	6000	1000
    1.63543 0.0100844 -3.36924e-06 5.34973e-10 -3.15528e-14 -10005.6 9.9937 
    5.14988 -0.013671 4.91801e-05 -4.84744e-08 1.66694e-11 -10246.6 -4.64132 
;
oxidant 	1	28.8504
    200	6000	1000
    3.10131 0.00124137 -4.18816e-07 6.64158e-11 -3.91274e-15 -985.266 5.35597 
    3.58378 -0.000727005 1.67057e-06 -1.09203e-10 -4.31765e-13 -1050.53 3.11239 
;
reactants 	1	28.2971
    200	6000	1000
    3.03798 0.00162339 -5.46273e-07 8.66573e-11 -5.10678e-15 -1374.94 5.55631 
    3.65143 -0.00128618 3.72296e-06 -2.19856e-09 3.06999e-13 -1447.8 2.77743 
;
burntProducts 	1	27.6334
    200	6000	1000
    3.0602 0.00182422 -5.93878e-07 8.93807e-11 -4.97595e-15 -10998.7 5.32209 
    3.54628 0.000378279 2.02797e-07 9.31602e-10 -6.84016e-13 -11102.1 2.90098 
;
products 	1	28.2971
    200	6000	1000
    3.08262 0.00150635 -4.98403e-07 7.68562e-11 -4.3961e-15 -5537.61 5.34057 
    3.56673 -0.000224517 1.00328e-06 3.63972e-10 -5.46445e-13 -5620.22 3.01628 
;
Tad = 1343.44

phi = 0.44
ft = 0.0250468
fuel fuel	1	16.0428
    200	6000	1000
    1.63543 0.0100844 -3.36924e-06 5.34973e-10 -3.15528e-14 -10005.6 9.9937 
    5.14988 -0.013671 4.91801e-05 -4.84744e-08 1.66694e-11 -10246.6 -4.64132 
;
oxidant 	1	28.8504
    200	6000	1000
    3.10131 0.00124137 -4.18816e-07 6.64158e-11 -3.91274e-15 -985.266 5.35597 
    3.58378 -0.000727005 1.67057e-06 -1.09203e-10 -4.31765e-13 -1050.53 3.11239 
;
reactants 	1	28.2848
    200	6000	1000
    3.03658 0.00163188 -5.49106e-07 8.71072e-11 -5.13332e-15 -1383.6 5.56077 
    3.65294 -0.00129861 3.76858e-06 -2.245e-09 3.23421e-13 -1456.63 2.76999 
;
burntProducts 	1	27.6334
    200	6000	1000
    3.0602 0.00182422 -5.93878e-07 8.93807e-11 -4.97595e-15 -10998.7 5.32209 
    3.54628 0.000378279 2.02797e-07 9.31602e-10 -6.84016e-13 -11102.1 2.90098 
;
products 	1	28.2848
    200	6000	1000
    3.0822 0.00151224 -5.00172e-07 7.70883e-11 -4.40684e-15 -5638.8 5.34022 
    3.56635 -0.000213347 9.88452e-07 3.7449e-10 -5.48994e-13 -5721.8 3.01414 
;
Tad = 1363.73

phi = 0.45
ft = 0.0256015
fuel fuel	1	16.0428
    200	6000	1000
    1.63543 0.0100844 -3.36924e-06 5.34973e-10 -3.15528e-14 -10005.6 9.9937 
    5.14988 -0.013671 4.91801e-05 -4.84744e-08 1.66694e-11 -10246.6 -4.64132 
;
oxidant 	1	28.8504
    200	6000	1000
    3.10131 0.00124137 -4.18816e-07 6.64158e-11 -3.91274e-15 -985.266 5.35597 
    3.58378 -0.000727005 1.67057e-06 -1.09203e-10 -4.31765e-13 -1050.53 3.11239 
;
reactants 	1	28.2725
    200	6000	1000
    3.03517 0.00164036 -5.51933e-07 8.75563e-11 -5.15981e-15 -1392.25 5.56521 
    3.65444 -0.00131101 3.81411e-06 -2.29135e-09 3.3981e-13 -1465.44 2.76256 
;
burntProducts 	1	27.6334
    200	6000	1000
    3.0602 0.00182422 -5.93878e-07 8.93807e-11 -4.97595e-15 -10998.7 5.32209 
    3.54628 0.000378279 2.02797e-07 9.31602e-10 -6.84016e-13 -11102.1 2.90098 
;
products 	1	28.2725
    200	6000	1000
    3.08179 0.00151812 -5.01938e-07 7.73199e-11 -4.41757e-15 -5739.79 5.33988 
    3.56597 -0.0002022 9.73649e-07 3.84987e-10 -5.51538e-13 -5823.17 3.01201 
;
Tad = 1383.89

phi = 0.46
ft = 0.0261556
fuel fuel	1	16.0428
    200	6000	1000
    1.63543 0.0100844 -3.36924e-06 5.34973e-10 -3.15528e-14 -10005.6 9.9937 
    5.14988 -0.013671 4.91801e-05 -4.84744e-08 1.66694e-11 -10246.6 -4.64132 
;
oxidant 	1	28.8504
    200	6000	1000
    3.10131 0.00124137 -4.18816e-07 6.64158e-11 -3.91274e-15 -985.266 5.35597 
    3.58378 -0.000727005 1.67057e-06 -1.09203e-10 -4.31765e-13 -1050.53 3.11239 
;
reactants 	1	28.2603
    200	6000	1000
    3.03377 0.00164882 -5.54755e-07 8.80044e-11 -5.18625e-15 -1400.87 5.56965 
    3.65593 -0.00132339 3.85955e-06 -2.33761e-09 3.56166e-13 -1474.24 2.75514 
;
burntProducts 	1	27.6334
    200	6000	1000
    3.0602 0.00182422 -5.93878e-07 8.93807e-11 -4.97595e-15 -10998.7 5.32209 
    3.54628 0.000378279 2.02797e-07 9.31602e-10 -6.84016e-13 -11102.1 2.90098 
;
products 	1	28.2603
    200	6000	1000
    3.08138 0.00152398 -5.037e-07 7.75511e-11 -4.42827e-15 -5840.58 5.33954 
    3.5656 -0.000191075 9.58875e-07 3.95463e-10 -5.54077e-13 -5924.35 3.00988 
;
Tad = 1403.91

phi = 0.47
ft = 0.026709
fuel fuel	1	16.0428
    200	6000	1000
    1.63543 0.0100844 -3.36924e-06 5.34973e-10 -3.15528e-14 -10005.6 9.9937 
    5.14988 -0.013671 4.91801e-05 -4.84744e-08 1.66694e-11 -10246.6 -4.64132 
;
oxidant 	1	28.8504
    200	6000	1000
    3.10131 0.00124137 -4.18816e-07 6.64158e-11 -3.91274e-15 -985.266 5.35597 
    3.58378 -0.000727005 1.67057e-06 -1.09203e-10 -4.31765e-13 -1050.53 3.11239 
;
reactants 	1	28.2481
    200	6000	1000
    3.03237 0.00165726 -5.57571e-07 8.84516e-11 -5.21263e-15 -1409.48 5.57407 
    3.65743 -0.00133575 3.9049e-06 -2.38378e-09 3.72489e-13 -1483.01 2.74774 
;
burntProducts 	1	27.6334
    200	6000	1000
    3.0602 0.00182422 -5.93878e-07 8.93807e-11 -4.97595e-15 -10998.7 5.32209 
    3.54628 0.000378279 2.02797e-07 9.31602e-10 -6.84016e-13 -11102.1 2.90098 
;
products 	1	28.2481
    200	6000	1000
    3.08096 0.00152984 -5.05458e-07 7.77817e-11 -4.43895e-15 -5941.17 5.3392 
    3.56522 -0.000179972 9.44131e-07 4.05918e-10 -5.56611e-13 -6025.32 3.00776 
;
Tad = 1423.81

phi = 0.48
ft = 0.0272618
fuel fuel	1	16.0428
    200	6000	1000
    1.63543 0.0100844 -3.36924e-06 5.34973e-10 -3.15528e-14 -10005.6 9.9937 
    5.14988 -0.013671 4.91801e-05 -4.84744e-08 1.66694e-11 -10246.6 -4.64132 
;
oxidant 	1	28.8504
    200	6000	1000
    3.10131 0.00124137 -4.18816e-07 6.64158e-11 -3.91274e-15 -985.266 5.35597 
    3.58378 -0.000727005 1.67057e-06 -1.09203e-10 -4.31765e-13 -1050.53 3.11239 
;
reactants 	1	28.2359
    200	6000	1000
    3.03097 0.00166568 -5.60382e-07 8.8898e-11 -5.23896e-15 -1418.08 5.57849 
    3.65892 -0.00134808 3.95016e-06 -2.42985e-09 3.8878e-13 -1491.78 2.74035 
;
burntProducts 	1	27.6334
    200	6000	1000
    3.0602 0.00182422 -5.93878e-07 8.93807e-11 -4.97595e-15 -10998.7 5.32209 
    3.54628 0.000378279 2.02797e-07 9.31602e-10 -6.84016e-13 -11102.1 2.90098 
;
products 	1	28.2359
    200	6000	1000
    3.08055 0.00153568 -5.07213e-07 7.8012e-11 -4.44961e-15 -6041.55 5.33886 
    3.56484 -0.000168891 9.29416e-07 4.16352e-10 -5.5914e-13 -6126.08 3.00564 
;
Tad = 1443.57

phi = 0.49
ft = 0.0278139
fuel fuel	1	16.0428
    200	6000	1000
    1.63543 0.0100844 -3.36924e-06 5.34973e-10 -3.15528e-14 -10005.6 9.9937 
    5.14988 -0.013671 4.91801e-05 -4.84744e-08 1.66694e-11 -10246.6 -4.64132 
;
oxidant 	1	28.8504
    200	6000	1000
    3.10131 0.00124137 -4.18816e-07 6.64158e-11 -3.91274e-15 -985.266 5.35597 
    3.58378 -0.000727005 1.67057e-06 -1.09203e-10 -4.31765e-13 -1050.53 3.11239 
;
reactants 	1	28.2237
    200	6000	1000
    3.02958 0.00167409 -5.63187e-07 8.93435e-11 -5.26524e-15 -1426.65 5.5829 
    3.66041 -0.00136039 3.99533e-06 -2.47583e-09 4.05038e-13 -1500.52 2.73298 
;
burntProducts 	1	27.6334
    200	6000	1000
    3.0602 0.00182422 -5.93878e-07 8.93807e-11 -4.97595e-15 -10998.7 5.32209 
    3.54628 0.000378279 2.02797e-07 9.31602e-10 -6.84016e-13 -11102.1 2.90098 
;
products 	1	28.2237
    200	6000	1000
    3.08014 0.00154151 -5.08965e-07 7.82417e-11 -4.46024e-15 -6141.74 5.33852 
    3.56447 -0.000157833 9.14731e-07 4.26765e-10 -5.61663e-13 -6226.65 3.00352 
;
Tad = 1463.21

phi = 0.5
ft = 0.0283654
fuel fuel	1	16.0428
    200	6000	1000
    1.63543 0.0100844 -3.36924e-06 5.34973e-10 -3.15528e-14 -10005.6 9.9937 
    5.14988 -0.013671 4.91801e-05 -4.84744e-08 1.66694e-11 -10246.6 -4.64132 
;
oxidant 	1	28.8504
    200	6000	1000
    3.10131 0.00124137 -4.18816e-07 6.64158e-11 -3.91274e-15 -985.266 5.35597 
    3.58378 -0.000727005 1.67057e-06 -1.09203e-10 -4.31765e-13 -1050.53 3.11239 
;
reactants 	1	28.2115
    200	6000	1000
    3.02819 0.00168248 -5.65986e-07 8.9788e-11 -5.29146e-15 -1435.21 5.5873 
    3.6619 -0.00137267 4.0404e-06 -2.52172e-09 4.21264e-13 -1509.24 2.72562 
;
burntProducts 	1	27.6334
    200	6000	1000
    3.0602 0.00182422 -5.93878e-07 8.93807e-11 -4.97595e-15 -10998.7 5.32209 
    3.54628 0.000378279 2.02797e-07 9.31602e-10 -6.84016e-13 -11102.1 2.90098 
;
products 	1	28.2115
    200	6000	1000
    3.07973 0.00154733 -5.10713e-07 7.8471e-11 -4.47086e-15 -6241.72 5.33818 
    3.56409 -0.000146797 9.00076e-07 4.37158e-10 -5.64182e-13 -6327.02 3.00141 
;
Tad = 1482.72

phi = 0.51
ft = 0.0289163
fuel fuel	1	16.0428
    200	6000	1000
    1.63543 0.0100844 -3.36924e-06 5.34973e-10 -3.15528e-14 -10005.6 9.9937 
    5.14988 -0.013671 4.91801e-05 -4.84744e-08 1.66694e-11 -10246.6 -4.64132 
;
oxidant 	1	28.8504
    200	6000	1000
    3.10131 0.00124137 -4.18816e-07 6.64158e-11 -3.91274e-15 -985.266 5.35597 
    3.58378 -0.000727005 1.67057e-06 -1.09203e-10 -4.31765e-13 -1050.53 3.11239 
;
reactants 	1	28.1994
    200	6000	1000
    3.0268 0.00169085 -5.6878e-07 9.02317e-11 -5.31764e-15 -1443.75 5.59169 
    3.66338 -0.00138492 4.08539e-06 -2.56752e-09 4.37457e-13 -1517.95 2.71828 
;
burntProducts 	1	27.6334
    200	6000	1000
    3.0602 0.00182422 -5.93878e-07 8.93807e-11 -4.97595e-15 -10998.7 5.32209 
    3.54628 0.000378279 2.02797e-07 9.31602e-10 -6.84016e-13 -11102.1 2.90098 
;
products 	1	28.1994
    200	6000	1000
    3.07932 0.00155314 -5.12458e-07 7.86999e-11 -4.48146e-15 -6341.51 5.33785 
    3.56372 -0.000135782 8.85449e-07 4.4753e-10 -5.66696e-13 -6427.18 2.9993 
;
Tad = 1502.11

phi = 0.52
ft = 0.0294666
fuel fuel	1	16.0428
    200	6000	1000
    1.63543 0.0100844 -3.36924e-06 5.34973e-10 -3.15528e-14 -10005.6 9.9937 
    5.14988 -0.013671 4.91801e-05 -4.84744e-08 1.66694e-11 -10246.6 -4.64132 
;
oxidant 	1	28.8504
    200	6000	1000
    3.10131 0.00124137 -4.18816e-07 6.64158e-11 -3.91274e-15 -985.266 5.35597 
    3.58378 -0.000727005 1.67057e-06 -1.09203e-10 -4.31765e-13 -1050.53 3.11239 
;
reactants 	1	28.1873
    200	6000	1000
    3.02542 0.00169921 -5.71568e-07 9.06745e-11 -5.34376e-15 -1452.28 5.59608 
    3.66486 -0.00139716 4.13029e-06 -2.61322e-09 4.53619e-13 -1526.64 2.71095 
;
burntProducts 	1	27.6334
    200	6000	1000
    3.0602 0.00182422 -5.93878e-07 8.93807e-11 -4.97595e-15 -10998.7 5.32209 
    3.54628 0.000378279 2.02797e-07 9.31602e-10 -6.84016e-13 -11102.1 2.90098 
;
products 	1	28.1873
    200	6000	1000
    3.07891 0.00155894 -5.14199e-07 7.89283e-11 -4.49203e-15 -6441.1 5.33751 
    3.56335 -0.00012479 8.70851e-07 4.57881e-10 -5.69205e-13 -6527.15 2.9972 
;
Tad = 1521.37

phi = 0.53
ft = 0.0300163
fuel fuel	1	16.0428
    200	6000	1000
    1.63543 0.0100844 -3.36924e-06 5.34973e-10 -3.15528e-14 -10005.6 9.9937 
    5.14988 -0.013671 4.91801e-05 -4.84744e-08 1.66694e-11 -10246.6 -4.64132 
;
oxidant 	1	28.8504
    200	6000	1000
    3.10131 0.00124137 -4.18816e-07 6.64158e-11 -3.91274e-15 -985.266 5.35597 
    3.58378 -0.000727005 1.67057e-06 -1.09203e-10 -4.31765e-13 -1050.53 3.11239 
;
reactants 	1	28.1752
    200	6000	1000
    3.02403 0.00170755 -5.74351e-07 9.11164e-11 -5.36982e-15 -1460.78 5.60045 
    3.66634 -0.00140937 4.1751e-06 -2.65884e-09 4.69748e-13 -1535.32 2.70364 
;
burntProducts 	1	27.6334
    200	6000	1000
    3.0602 0.00182422 -5.93878e-07 8.93807e-11 -4.97595e-15 -10998.7 5.32209 
    3.54628 0.000378279 2.02797e-07 9.31602e-10 -6.84016e-13 -11102.1 2.90098 
;
products 	1	28.1752
    200	6000	1000
    3.0785 0.00156472 -5.15936e-07 7.91562e-11 -4.50258e-15 -6540.49 5.33717 
    3.56297 -0.000113819 8.56283e-07 4.68211e-10 -5.71708e-13 -6626.92 2.9951 
;
Tad = 1540.52

phi = 0.54
ft = 0.0305653
fuel fuel	1	16.0428
    200	6000	1000
    1.63543 0.0100844 -3.36924e-06 5.34973e-10 -3.15528e-14 -10005.6 9.9937 
    5.14988 -0.013671 4.91801e-05 -4.84744e-08 1.66694e-11 -10246.6 -4.64132 
;
oxidant 	1	28.8504
    200	6000	1000
    3.10131 0.00124137 -4.18816e-07 6.64158e-11 -3.91274e-15 -985.266 5.35597 
    3.58378 -0.000727005 1.67057e-06 -1.09203e-10 -4.31765e-13 -1050.53 3.11239 
;
reactants 	1	28.1632
    200	6000	1000
    3.02265 0.00171587 -5.77128e-07 9.15575e-11 -5.39584e-15 -1469.28 5.60481 
    3.66781 -0.00142155 4.21982e-06 -2.70436e-09 4.85845e-13 -1543.97 2.69634 
;
burntProducts 	1	27.6334
    200	6000	1000
    3.0602 0.00182422 -5.93878e-07 8.93807e-11 -4.97595e-15 -10998.7 5.32209 
    3.54628 0.000378279 2.02797e-07 9.31602e-10 -6.84016e-13 -11102.1 2.90098 
;
products 	1	28.1632
    200	6000	1000
    3.07809 0.0015705 -5.1767e-07 7.93837e-11 -4.51311e-15 -6639.68 5.33684 
    3.5626 -0.000102871 8.41743e-07 4.78521e-10 -5.74207e-13 -6726.49 2.99301 
;
Tad = 1559.54

phi = 0.55
ft = 0.0311137
fuel fuel	1	16.0428
    200	6000	1000
    1.63543 0.0100844 -3.36924e-06 5.34973e-10 -3.15528e-14 -10005.6 9.9937 
    5.14988 -0.013671 4.91801e-05 -4.84744e-08 1.66694e-11 -10246.6 -4.64132 
;
oxidant 	1	28.8504
    200	6000	1000
    3.10131 0.00124137 -4.18816e-07 6.64158e-11 -3.91274e-15 -985.266 5.35597 
    3.58378 -0.000727005 1.67057e-06 -1.09203e-10 -4.31765e-13 -1050.53 3.11239 
;
reactants 	1	28.1511
    200	6000	1000
    3.02128 0.00172418 -5.799e-07 9.19976e-11 -5.42181e-15 -1477.75 5.60917 
    3.66928 -0.00143371 4.26445e-06 -2.7498e-09 5.0191e-13 -1552.61 2.68906 
;
burntProducts 	1	27.6334
    200	6000	1000
    3.0602 0.00182422 -5.93878e-07 8.93807e-11 -4.97595e-15 -10998.7 5.32209 
    3.54628 0.000378279 2.02797e-07 9.31602e-10 -6.84016e-13 -11102.1 2.90098 
;
products 	1	28.1511
    200	6000	1000
    3.07769 0.00157626 -5.19401e-07 7.96107e-11 -4.52363e-15 -6738.67 5.3365 
    3.56223 -9.19435e-05 8.27233e-07 4.88811e-10 -5.76701e-13 -6825.86 2.99092 
;
Tad = 1578.45

phi = 0.56
ft = 0.0316615
fuel fuel	1	16.0428
    200	6000	1000
    1.63543 0.0100844 -3.36924e-06 5.34973e-10 -3.15528e-14 -10005.6 9.9937 
    5.14988 -0.013671 4.91801e-05 -4.84744e-08 1.66694e-11 -10246.6 -4.64132 
;
oxidant 	1	28.8504
    200	6000	1000
    3.10131 0.00124137 -4.18816e-07 6.64158e-11 -3.91274e-15 -985.266 5.35597 
    3.58378 -0.000727005 1.67057e-06 -1.09203e-10 -4.31765e-13 -1050.53 3.11239 
;
reactants 	1	28.1391
    200	6000	1000
    3.0199 0.00173247 -5.82666e-07 9.24369e-11 -5.44772e-15 -1486.21 5.61352 
    3.67075 -0.00144584 4.30899e-06 -2.79514e-09 5.17943e-13 -1561.23 2.68179 
;
burntProducts 	1	27.6334
    200	6000	1000
    3.0602 0.00182422 -5.93878e-07 8.93807e-11 -4.97595e-15 -10998.7 5.32209 
    3.54628 0.000378279 2.02797e-07 9.31602e-10 -6.84016e-13 -11102.1 2.90098 
;
products 	1	28.1391
    200	6000	1000
    3.07728 0.00158201 -5.21128e-07 7.98373e-11 -4.53412e-15 -6837.47 5.33617 
    3.56186 -8.10382e-05 8.12751e-07 4.9908e-10 -5.7919e-13 -6925.03 2.98883 
;
Tad = 1597.24

phi = 0.57
ft = 0.0322087
fuel fuel	1	16.0428
    200	6000	1000
    1.63543 0.0100844 -3.36924e-06 5.34973e-10 -3.15528e-14 -10005.6 9.9937 
    5.14988 -0.013671 4.91801e-05 -4.84744e-08 1.66694e-11 -10246.6 -4.64132 
;
oxidant 	1	28.8504
    200	6000	1000
    3.10131 0.00124137 -4.18816e-07 6.64158e-11 -3.91274e-15 -985.266 5.35597 
    3.58378 -0.000727005 1.67057e-06 -1.09203e-10 -4.31765e-13 -1050.53 3.11239 
;
reactants 	1	28.1271
    200	6000	1000
    3.01853 0.00174074 -5.85427e-07 9.28754e-11 -5.47358e-15 -1494.65 5.61786 
    3.67221 -0.00145796 4.35345e-06 -2.8404e-09 5.33944e-13 -1569.84 2.67453 
;
burntProducts 	1	27.6334
    200	6000	1000
    3.0602 0.00182422 -5.93878e-07 8.93807e-11 -4.97595e-15 -10998.7 5.32209 
    3.54628 0.000378279 2.02797e-07 9.31602e-10 -6.84016e-13 -11102.1 2.90098 
;
products 	1	28.1271
    200	6000	1000
    3.07688 0.00158775 -5.22852e-07 8.00635e-11 -4.54459e-15 -6936.07 5.33583 
    3.56149 -7.01545e-05 7.98298e-07 5.09329e-10 -5.81674e-13 -7024.01 2.98675 
;
Tad = 1615.91

phi = 0.58
ft = 0.0327553
fuel fuel	1	16.0428
    200	6000	1000
    1.63543 0.0100844 -3.36924e-06 5.34973e-10 -3.15528e-14 -10005.6 9.9937 
    5.14988 -0.013671 4.91801e-05 -4.84744e-08 1.66694e-11 -10246.6 -4.64132 
;
oxidant 	1	28.8504
    200	6000	1000
    3.10131 0.00124137 -4.18816e-07 6.64158e-11 -3.91274e-15 -985.266 5.35597 
    3.58378 -0.000727005 1.67057e-06 -1.09203e-10 -4.31765e-13 -1050.53 3.11239 
;
reactants 	1	28.1152
    200	6000	1000
    3.01716 0.001749 -5.88182e-07 9.33129e-11 -5.49939e-15 -1503.07 5.62219 
    3.67368 -0.00147004 4.39781e-06 -2.88556e-09 5.49914e-13 -1578.42 2.66729 
;
burntProducts 	1	27.6334
    200	6000	1000
    3.0602 0.00182422 -5.93878e-07 8.93807e-11 -4.97595e-15 -10998.7 5.32209 
    3.54628 0.000378279 2.02797e-07 9.31602e-10 -6.84016e-13 -11102.1 2.90098 
;
products 	1	28.1152
    200	6000	1000
    3.07647 0.00159348 -5.24572e-07 8.02891e-11 -4.55503e-15 -7034.48 5.3355 
    3.56112 -5.92923e-05 7.83873e-07 5.19558e-10 -5.84153e-13 -7122.79 2.98467 
;
Tad = 1634.47

phi = 0.59
ft = 0.0333012
fuel fuel	1	16.0428
    200	6000	1000
    1.63543 0.0100844 -3.36924e-06 5.34973e-10 -3.15528e-14 -10005.6 9.9937 
    5.14988 -0.013671 4.91801e-05 -4.84744e-08 1.66694e-11 -10246.6 -4.64132 
;
oxidant 	1	28.8504
    200	6000	1000
    3.10131 0.00124137 -4.18816e-07 6.64158e-11 -3.91274e-15 -985.266 5.35597 
    3.58378 -0.000727005 1.67057e-06 -1.09203e-10 -4.31765e-13 -1050.53 3.11239 
;
reactants 	1	28.1032
    200	6000	1000
    3.0158 0.00175724 -5.90932e-07 9.37496e-11 -5.52515e-15 -1511.48 5.62651 
    3.67514 -0.00148211 4.44209e-06 -2.93064e-09 5.65852e-13 -1586.99 2.66007 
;
burntProducts 	1	27.6334
    200	6000	1000
    3.0602 0.00182422 -5.93878e-07 8.93807e-11 -4.97595e-15 -10998.7 5.32209 
    3.54628 0.000378279 2.02797e-07 9.31602e-10 -6.84016e-13 -11102.1 2.90098 
;
products 	1	28.1032
    200	6000	1000
    3.07607 0.00159919 -5.2629e-07 8.05144e-11 -4.56546e-15 -7132.69 5.33517 
    3.56076 -4.84516e-05 7.69477e-07 5.29766e-10 -5.86627e-13 -7221.38 2.9826 
;
Tad = 1652.92

phi = 0.6
ft = 0.0338465
fuel fuel	1	16.0428
    200	6000	1000
    1.63543 0.0100844 -3.36924e-06 5.34973e-10 -3.15528e-14 -10005.6 9.9937 
    5.14988 -0.013671 4.91801e-05 -4.84744e-08 1.66694e-11 -10246.6 -4.64132 
;
oxidant 	1	28.8504
    200	6000	1000
    3.10131 0.00124137 -4.18816e-07 6.64158e-11 -3.91274e-15 -985.266 5.35597 
    3.58378 -0.000727005 1.67057e-06 -1.09203e-10 -4.31765e-13 -1050.53 3.11239 
;
reactants 	1	28.0913
    200	6000	1000
    3.01443 0.00176547 -5.93676e-07 9.41854e-11 -5.55086e-15 -1519.87 5.63083 
    3.67659 -0.00149415 4.48628e-06 -2.97563e-09 5.81759e-13 -1595.55 2.65286 
;
burntProducts 	1	27.6334
    200	6000	1000
    3.0602 0.00182422 -5.93878e-07 8.93807e-11 -4.97595e-15 -10998.7 5.32209 
    3.54628 0.000378279 2.02797e-07 9.31602e-10 -6.84016e-13 -11102.1 2.90098 
;
products 	1	28.0913
    200	6000	1000
    3.07567 0.0016049 -5.28003e-07 8.07392e-11 -4.57587e-15 -7230.71 5.33484 
    3.56039 -3.76323e-05 7.5511e-07 5.39954e-10 -5.89096e-13 -7319.77 2.98053 
;
Tad = 1671.26

phi = 0.61
ft = 0.0343912
fuel fuel	1	16.0428
    200	6000	1000
    1.63543 0.0100844 -3.36924e-06 5.34973e-10 -3.15528e-14 -10005.6 9.9937 
    5.14988 -0.013671 4.91801e-05 -4.84744e-08 1.66694e-11 -10246.6 -4.64132 
;
oxidant 	1	28.8504
    200	6000	1000
    3.10131 0.00124137 -4.18816e-07 6.64158e-11 -3.91274e-15 -985.266 5.35597 
    3.58378 -0.000727005 1.67057e-06 -1.09203e-10 -4.31765e-13 -1050.53 3.11239 
;
reactants 	1	28.0794
    200	6000	1000
    3.01307 0.00177368 -5.96415e-07 9.46204e-11 -5.57652e-15 -1528.24 5.63513 
    3.67805 -0.00150616 4.53038e-06 -3.02052e-09 5.97634e-13 -1604.09 2.64566 
;
burntProducts 	1	27.6334
    200	6000	1000
    3.0602 0.00182422 -5.93878e-07 8.93807e-11 -4.97595e-15 -10998.7 5.32209 
    3.54628 0.000378279 2.02797e-07 9.31602e-10 -6.84016e-13 -11102.1 2.90098 
;
products 	1	28.0794
    200	6000	1000
    3.07527 0.00161059 -5.29713e-07 8.09635e-11 -4.58626e-15 -7328.53 5.33451 
    3.56002 -2.68343e-05 7.40771e-07 5.50122e-10 -5.9156e-13 -7417.97 2.97846 
;
Tad = 1689.49

phi = 0.62
ft = 0.0349353
fuel fuel	1	16.0428
    200	6000	1000
    1.63543 0.0100844 -3.36924e-06 5.34973e-10 -3.15528e-14 -10005.6 9.9937 
    5.14988 -0.013671 4.91801e-05 -4.84744e-08 1.66694e-11 -10246.6 -4.64132 
;
oxidant 	1	28.8504
    200	6000	1000
    3.10131 0.00124137 -4.18816e-07 6.64158e-11 -3.91274e-15 -985.266 5.35597 
    3.58378 -0.000727005 1.67057e-06 -1.09203e-10 -4.31765e-13 -1050.53 3.11239 
;
reactants 	1	28.0676
    200	6000	1000
    3.01171 0.00178187 -5.99149e-07 9.50545e-11 -5.60213e-15 -1536.6 5.63943 
    3.6795 -0.00151816 4.5744e-06 -3.06533e-09 6.13478e-13 -1612.61 2.63847 
;
burntProducts 	1	27.6334
    200	6000	1000
    3.0602 0.00182422 -5.93878e-07 8.93807e-11 -4.97595e-15 -10998.7 5.32209 
    3.54628 0.000378279 2.02797e-07 9.31602e-10 -6.84016e-13 -11102.1 2.90098 
;
products 	1	28.0676
    200	6000	1000
    3.07487 0.00161627 -5.3142e-07 8.11874e-11 -4.59662e-15 -7426.17 5.33418 
    3.55966 -1.60577e-05 7.2646e-07 5.6027e-10 -5.9402e-13 -7515.97 2.9764 
;
Tad = 1707.61

phi = 0.63
ft = 0.0354788
fuel fuel	1	16.0428
    200	6000	1000
    1.63543 0.0100844 -3.36924e-06 5.34973e-10 -3.15528e-14 -10005.6 9.9937 
    5.14988 -0.013671 4.91801e-05 -4.84744e-08 1.66694e-11 -10246.6 -4.64132 
;
oxidant 	1	28.8504
    200	6000	1000
    3.10131 0.00124137 -4.18816e-07 6.64158e-11 -3.91274e-15 -985.266 5.35597 
    3.58378 -0.000727005 1.67057e-06 -1.09203e-10 -4.31765e-13 -1050.53 3.11239 
;
reactants 	1	28.0557
    200	6000	1000
    3.01036 0.00179005 -6.01877e-07 9.54878e-11 -5.62769e-15 -1544.94 5.64372 
    3.68095 -0.00153012 4.61833e-06 -3.11005e-09 6.29291e-13 -1621.11 2.6313 
;
burntProducts 	1	27.6334
    200	6000	1000
    3.0602 0.00182422 -5.93878e-07 8.93807e-11 -4.97595e-15 -10998.7 5.32209 
    3.54628 0.000378279 2.02797e-07 9.31602e-10 -6.84016e-13 -11102.1 2.90098 
;
products 	1	28.0557
    200	6000	1000
    3.07447 0.00162195 -5.33124e-07 8.14109e-11 -4.60697e-15 -7523.61 5.33385 
    3.55929 -5.30225e-06 7.12177e-07 5.70398e-10 -5.96474e-13 -7613.78 2.97435 
;
Tad = 1725.63

phi = 0.64
ft = 0.0360217
fuel fuel	1	16.0428
    200	6000	1000
    1.63543 0.0100844 -3.36924e-06 5.34973e-10 -3.15528e-14 -10005.6 9.9937 
    5.14988 -0.013671 4.91801e-05 -4.84744e-08 1.66694e-11 -10246.6 -4.64132 
;
oxidant 	1	28.8504
    200	6000	1000
    3.10131 0.00124137 -4.18816e-07 6.64158e-11 -3.91274e-15 -985.266 5.35597 
    3.58378 -0.000727005 1.67057e-06 -1.09203e-10 -4.31765e-13 -1050.53 3.11239 
;
reactants 	1	28.0439
    200	6000	1000
    3.009 0.00179821 -6.04599e-07 9.59202e-11 -5.6532e-15 -1553.26 5.648 
    3.68239 -0.00154207 4.66218e-06 -3.15469e-09 6.45072e-13 -1629.6 2.62415 
;
burntProducts 	1	27.6334
    200	6000	1000
    3.0602 0.00182422 -5.93878e-07 8.93807e-11 -4.97595e-15 -10998.7 5.32209 
    3.54628 0.000378279 2.02797e-07 9.31602e-10 -6.84016e-13 -11102.1 2.90098 
;
products 	1	28.0439
    200	6000	1000
    3.07407 0.00162761 -5.34824e-07 8.16339e-11 -4.61729e-15 -7620.85 5.33352 
    3.55893 5.43201e-06 6.97922e-07 5.80506e-10 -5.98924e-13 -7711.4 2.97229 
;
Tad = 1743.54

phi = 0.65
ft = 0.0365639
fuel fuel	1	16.0428
    200	6000	1000
    1.63543 0.0100844 -3.36924e-06 5.34973e-10 -3.15528e-14 -10005.6 9.9937 
    5.14988 -0.013671 4.91801e-05 -4.84744e-08 1.66694e-11 -10246.6 -4.64132 
;
oxidant 	1	28.8504
    200	6000	1000
    3.10131 0.00124137 -4.18816e-07 6.64158e-11 -3.91274e-15 -985.266 5.35597 
    3.58378 -0.000727005 1.67057e-06 -1.09203e-10 -4.31765e-13 -1050.53 3.11239 
;
reactants 	1	28.0321
    200	6000	1000
    3.00765 0.00180635 -6.07317e-07 9.63517e-11 -5.67865e-15 -1561.57 5.65227 
    3.68383 -0.00155399 4.70593e-06 -3.19923e-09 6.60823e-13 -1638.07 2.61701 
;
burntProducts 	1	27.6334
    200	6000	1000
    3.0602 0.00182422 -5.93878e-07 8.93807e-11 -4.97595e-15 -10998.7 5.32209 
    3.54628 0.000378279 2.02797e-07 9.31602e-10 -6.84016e-13 -11102.1 2.90098 
;
products 	1	28.0321
    200	6000	1000
    3.07367 0.00163326 -5.36521e-07 8.18565e-11 -4.6276e-15 -7717.91 5.33319 
    3.55857 1.61452e-05 6.83696e-07 5.90594e-10 -6.01369e-13 -7808.83 2.97024 
;
Tad = 1761.34

phi = 0.66
ft = 0.0371056
fuel fuel	1	16.0428
    200	6000	1000
    1.63543 0.0100844 -3.36924e-06 5.34973e-10 -3.15528e-14 -10005.6 9.9937 
    5.14988 -0.013671 4.91801e-05 -4.84744e-08 1.66694e-11 -10246.6 -4.64132 
;
oxidant 	1	28.8504
    200	6000	1000
    3.10131 0.00124137 -4.18816e-07 6.64158e-11 -3.91274e-15 -985.266 5.35597 
    3.58378 -0.000727005 1.67057e-06 -1.09203e-10 -4.31765e-13 -1050.53 3.11239 
;
reactants 	1	28.0204
    200	6000	1000
    3.00631 0.00181448 -6.10029e-07 9.67824e-11 -5.70406e-15 -1569.86 5.65653 
    3.68527 -0.00156589 4.7496e-06 -3.24369e-09 6.76542e-13 -1646.52 2.60988 
;
burntProducts 	1	27.6334
    200	6000	1000
    3.0602 0.00182422 -5.93878e-07 8.93807e-11 -4.97595e-15 -10998.7 5.32209 
    3.54628 0.000378279 2.02797e-07 9.31602e-10 -6.84016e-13 -11102.1 2.90098 
;
products 	1	28.0204
    200	6000	1000
    3.07327 0.00163889 -5.38214e-07 8.20787e-11 -4.63788e-15 -7814.78 5.33286 
    3.5582 2.68373e-05 6.69497e-07 6.00663e-10 -6.03809e-13 -7906.06 2.9682 
;
Tad = 1779.04

phi = 0.67
ft = 0.0376466
fuel fuel	1	16.0428
    200	6000	1000
    1.63543 0.0100844 -3.36924e-06 5.34973e-10 -3.15528e-14 -10005.6 9.9937 
    5.14988 -0.013671 4.91801e-05 -4.84744e-08 1.66694e-11 -10246.6 -4.64132 
;
oxidant 	1	28.8504
    200	6000	1000
    3.10131 0.00124137 -4.18816e-07 6.64158e-11 -3.91274e-15 -985.266 5.35597 
    3.58378 -0.000727005 1.67057e-06 -1.09203e-10 -4.31765e-13 -1050.53 3.11239 
;
reactants 	1	28.0086
    200	6000	1000
    3.00496 0.0018226 -6.12736e-07 9.72123e-11 -5.72942e-15 -1578.14 5.66079 
    3.68671 -0.00157776 4.79319e-06 -3.28806e-09 6.92231e-13 -1654.96 2.60277 
;
burntProducts 	1	27.6334
    200	6000	1000
    3.0602 0.00182422 -5.93878e-07 8.93807e-11 -4.97595e-15 -10998.7 5.32209 
    3.54628 0.000378279 2.02797e-07 9.31602e-10 -6.84016e-13 -11102.1 2.90098 
;
products 	1	28.0086
    200	6000	1000
    3.07287 0.00164452 -5.39904e-07 8.23004e-11 -4.64815e-15 -7911.45 5.33254 
    3.55784 3.75084e-05 6.55326e-07 6.10711e-10 -6.06245e-13 -8003.11 2.96616 
;
Tad = 1796.65

phi = 0.68
ft = 0.0381871
fuel fuel	1	16.0428
    200	6000	1000
    1.63543 0.0100844 -3.36924e-06 5.34973e-10 -3.15528e-14 -10005.6 9.9937 
    5.14988 -0.013671 4.91801e-05 -4.84744e-08 1.66694e-11 -10246.6 -4.64132 
;
oxidant 	1	28.8504
    200	6000	1000
    3.10131 0.00124137 -4.18816e-07 6.64158e-11 -3.91274e-15 -985.266 5.35597 
    3.58378 -0.000727005 1.67057e-06 -1.09203e-10 -4.31765e-13 -1050.53 3.11239 
;
reactants 	1	27.9969
    200	6000	1000
    3.00362 0.00183069 -6.15437e-07 9.76413e-11 -5.75472e-15 -1586.4 5.66503 
    3.68814 -0.00158962 4.83669e-06 -3.33235e-09 7.07889e-13 -1663.38 2.59567 
;
burntProducts 	1	27.6334
    200	6000	1000
    3.0602 0.00182422 -5.93878e-07 8.93807e-11 -4.97595e-15 -10998.7 5.32209 
    3.54628 0.000378279 2.02797e-07 9.31602e-10 -6.84016e-13 -11102.1 2.90098 
;
products 	1	27.9969
    200	6000	1000
    3.07248 0.00165014 -5.41591e-07 8.25217e-11 -4.65839e-15 -8007.94 5.33221 
    3.55748 4.81586e-05 6.41183e-07 6.2074e-10 -6.08675e-13 -8099.96 2.96412 
;
Tad = 1814.15

phi = 0.69
ft = 0.0387269
fuel fuel	1	16.0428
    200	6000	1000
    1.63543 0.0100844 -3.36924e-06 5.34973e-10 -3.15528e-14 -10005.6 9.9937 
    5.14988 -0.013671 4.91801e-05 -4.84744e-08 1.66694e-11 -10246.6 -4.64132 
;
oxidant 	1	28.8504
    200	6000	1000
    3.10131 0.00124137 -4.18816e-07 6.64158e-11 -3.91274e-15 -985.266 5.35597 
    3.58378 -0.000727005 1.67057e-06 -1.09203e-10 -4.31765e-13 -1050.53 3.11239 
;
reactants 	1	27.9852
    200	6000	1000
    3.00228 0.00183877 -6.18133e-07 9.80695e-11 -5.77998e-15 -1594.64 5.66927 
    3.68958 -0.00160145 4.88011e-06 -3.37654e-09 7.23517e-13 -1671.78 2.58858 
;
burntProducts 	1	27.6334
    200	6000	1000
    3.0602 0.00182422 -5.93878e-07 8.93807e-11 -4.97595e-15 -10998.7 5.32209 
    3.54628 0.000378279 2.02797e-07 9.31602e-10 -6.84016e-13 -11102.1 2.90098 
;
products 	1	27.9852
    200	6000	1000
    3.07208 0.00165574 -5.43275e-07 8.27425e-11 -4.66862e-15 -8104.24 5.33188 
    3.55712 5.8788e-05 6.27068e-07 6.30749e-10 -6.11101e-13 -8196.63 2.96209 
;
Tad = 1831.55

phi = 0.7
ft = 0.0392661
fuel fuel	1	16.0428
    200	6000	1000
    1.63543 0.0100844 -3.36924e-06 5.34973e-10 -3.15528e-14 -10005.6 9.9937 
    5.14988 -0.013671 4.91801e-05 -4.84744e-08 1.66694e-11 -10246.6 -4.64132 
;
oxidant 	1	28.8504
    200	6000	1000
    3.10131 0.00124137 -4.18816e-07 6.64158e-11 -3.91274e-15 -985.266 5.35597 
    3.58378 -0.000727005 1.67057e-06 -1.09203e-10 -4.31765e-13 -1050.53 3.11239 
;
reactants 	1	27.9735
    200	6000	1000
    3.00094 0.00184684 -6.20824e-07 9.84968e-11 -5.80519e-15 -1602.87 5.6735 
    3.691 -0.00161325 4.92344e-06 -3.42065e-09 7.39114e-13 -1680.17 2.58151 
;
burntProducts 	1	27.6334
    200	6000	1000
    3.0602 0.00182422 -5.93878e-07 8.93807e-11 -4.97595e-15 -10998.7 5.32209 
    3.54628 0.000378279 2.02797e-07 9.31602e-10 -6.84016e-13 -11102.1 2.90098 
;
products 	1	27.9735
    200	6000	1000
    3.07169 0.00166134 -5.44955e-07 8.2963e-11 -4.67882e-15 -8200.35 5.33156 
    3.55676 6.93966e-05 6.1298e-07 6.40739e-10 -6.13522e-13 -8293.1 2.96006 
;
Tad = 1848.85

phi = 0.71
ft = 0.0398047
fuel fuel	1	16.0428
    200	6000	1000
    1.63543 0.0100844 -3.36924e-06 5.34973e-10 -3.15528e-14 -10005.6 9.9937 
    5.14988 -0.013671 4.91801e-05 -4.84744e-08 1.66694e-11 -10246.6 -4.64132 
;
oxidant 	1	28.8504
    200	6000	1000
    3.10131 0.00124137 -4.18816e-07 6.64158e-11 -3.91274e-15 -985.266 5.35597 
    3.58378 -0.000727005 1.67057e-06 -1.09203e-10 -4.31765e-13 -1050.53 3.11239 
;
reactants 	1	27.9618
    200	6000	1000
    2.99961 0.00185489 -6.2351e-07 9.89233e-11 -5.83035e-15 -1611.08 5.67772 
    3.69243 -0.00162503 4.96668e-06 -3.46468e-09 7.5468e-13 -1688.54 2.57445 
;
burntProducts 	1	27.6334
    200	6000	1000
    3.0602 0.00182422 -5.93878e-07 8.93807e-11 -4.97595e-15 -10998.7 5.32209 
    3.54628 0.000378279 2.02797e-07 9.31602e-10 -6.84016e-13 -11102.1 2.90098 
;
products 	1	27.9618
    200	6000	1000
    3.07129 0.00166692 -5.46632e-07 8.3183e-11 -4.68901e-15 -8296.27 5.33123 
    3.5564 7.99844e-05 5.9892e-07 6.50709e-10 -6.15939e-13 -8389.39 2.95803 
;
Tad = 1866.05

phi = 0.72
ft = 0.0403427
fuel fuel	1	16.0428
    200	6000	1000
    1.63543 0.0100844 -3.36924e-06 5.34973e-10 -3.15528e-14 -10005.6 9.9937 
    5.14988 -0.013671 4.91801e-05 -4.84744e-08 1.66694e-11 -10246.6 -4.64132 
;
oxidant 	1	28.8504
    200	6000	1000
    3.10131 0.00124137 -4.18816e-07 6.64158e-11 -3.91274e-15 -985.266 5.35597 
    3.58378 -0.000727005 1.67057e-06 -1.09203e-10 -4.31765e-13 -1050.53 3.11239 
;
reactants 	1	27.9502
    200	6000	1000
    2.99828 0.00186292 -6.2619e-07 9.9349e-11 -5.85546e-15 -1619.27 5.68193 
    3.69385 -0.00163679 5.00984e-06 -3.50862e-09 7.70216e-13 -1696.89 2.56741 
;
burntProducts 	1	27.6334
    200	6000	1000
    3.0602 0.00182422 -5.93878e-07 8.93807e-11 -4.97595e-15 -10998.7 5.32209 
    3.54628 0.000378279 2.02797e-07 9.31602e-10 -6.84016e-13 -11102.1 2.90098 
;
products 	1	27.9502
    200	6000	1000
    3.0709 0.00167249 -5.48306e-07 8.34025e-11 -4.69917e-15 -8392 5.33091 
    3.55604 9.05516e-05 5.84887e-07 6.6066e-10 -6.1835e-13 -8485.49 2.95601 
;
Tad = 1883.16

phi = 0.73
ft = 0.0408801
fuel fuel	1	16.0428
    200	6000	1000
    1.63543 0.0100844 -3.36924e-06 5.34973e-10 -3.15528e-14 -10005.6 9.9937 
    5.14988 -0.013671 4.91801e-05 -4.84744e-08 1.66694e-11 -10246.6 -4.64132 
;
oxidant 	1	28.8504
    200	6000	1000
    3.10131 0.00124137 -4.18816e-07 6.64158e-11 -3.91274e-15 -985.266 5.35597 
    3.58378 -0.000727005 1.67057e-06 -1.09203e-10 -4.31765e-13 -1050.53 3.11239 
;
reactants 	1	27.9386
    200	6000	1000
    2.99695 0.00187094 -6.28865e-07 9.97738e-11 -5.88052e-15 -1627.45 5.68614 
    3.69527 -0.00164853 5.05292e-06 -3.55247e-09 7.85722e-13 -1705.23 2.56038 
;
burntProducts 	1	27.6334
    200	6000	1000
    3.0602 0.00182422 -5.93878e-07 8.93807e-11 -4.97595e-15 -10998.7 5.32209 
    3.54628 0.000378279 2.02797e-07 9.31602e-10 -6.84016e-13 -11102.1 2.90098 
;
products 	1	27.9386
    200	6000	1000
    3.07051 0.00167805 -5.49976e-07 8.36216e-11 -4.70932e-15 -8487.55 5.33059 
    3.55568 0.000101098 5.70881e-07 6.70591e-10 -6.20757e-13 -8581.4 2.95399 
;
Tad = 1900.18

phi = 0.74
ft = 0.0414169
fuel fuel	1	16.0428
    200	6000	1000
    1.63543 0.0100844 -3.36924e-06 5.34973e-10 -3.15528e-14 -10005.6 9.9937 
    5.14988 -0.013671 4.91801e-05 -4.84744e-08 1.66694e-11 -10246.6 -4.64132 
;
oxidant 	1	28.8504
    200	6000	1000
    3.10131 0.00124137 -4.18816e-07 6.64158e-11 -3.91274e-15 -985.266 5.35597 
    3.58378 -0.000727005 1.67057e-06 -1.09203e-10 -4.31765e-13 -1050.53 3.11239 
;
reactants 	1	27.927
    200	6000	1000
    2.99562 0.00187894 -6.31535e-07 1.00198e-10 -5.90553e-15 -1635.61 5.69034 
    3.69669 -0.00166024 5.09591e-06 -3.59624e-09 8.01197e-13 -1713.55 2.55336 
;
burntProducts 	1	27.6334
    200	6000	1000
    3.0602 0.00182422 -5.93878e-07 8.93807e-11 -4.97595e-15 -10998.7 5.32209 
    3.54628 0.000378279 2.02797e-07 9.31602e-10 -6.84016e-13 -11102.1 2.90098 
;
products 	1	27.927
    200	6000	1000
    3.07012 0.0016836 -5.51643e-07 8.38403e-11 -4.71944e-15 -8582.91 5.33026 
    3.55533 0.000111624 5.56903e-07 6.80503e-10 -6.2316e-13 -8677.13 2.95198 
;
Tad = 1917.1

phi = 0.75
ft = 0.0419532
fuel fuel	1	16.0428
    200	6000	1000
    1.63543 0.0100844 -3.36924e-06 5.34973e-10 -3.15528e-14 -10005.6 9.9937 
    5.14988 -0.013671 4.91801e-05 -4.84744e-08 1.66694e-11 -10246.6 -4.64132 
;
oxidant 	1	28.8504
    200	6000	1000
    3.10131 0.00124137 -4.18816e-07 6.64158e-11 -3.91274e-15 -985.266 5.35597 
    3.58378 -0.000727005 1.67057e-06 -1.09203e-10 -4.31765e-13 -1050.53 3.11239 
;
reactants 	1	27.9154
    200	6000	1000
    2.9943 0.00188693 -6.342e-07 1.00621e-10 -5.9305e-15 -1643.76 5.69453 
    3.6981 -0.00167193 5.13882e-06 -3.63992e-09 8.16642e-13 -1721.86 2.54636 
;
burntProducts 	1	27.6334
    200	6000	1000
    3.0602 0.00182422 -5.93878e-07 8.93807e-11 -4.97595e-15 -10998.7 5.32209 
    3.54628 0.000378279 2.02797e-07 9.31602e-10 -6.84016e-13 -11102.1 2.90098 
;
products 	1	27.9154
    200	6000	1000
    3.06973 0.00168914 -5.53307e-07 8.40586e-11 -4.72955e-15 -8678.09 5.32994 
    3.55497 0.00012213 5.42952e-07 6.90396e-10 -6.25557e-13 -8772.67 2.94997 
;
Tad = 1933.92

phi = 0.76
ft = 0.0424888
fuel fuel	1	16.0428
    200	6000	1000
    1.63543 0.0100844 -3.36924e-06 5.34973e-10 -3.15528e-14 -10005.6 9.9937 
    5.14988 -0.013671 4.91801e-05 -4.84744e-08 1.66694e-11 -10246.6 -4.64132 
;
oxidant 	1	28.8504
    200	6000	1000
    3.10131 0.00124137 -4.18816e-07 6.64158e-11 -3.91274e-15 -985.266 5.35597 
    3.58378 -0.000727005 1.67057e-06 -1.09203e-10 -4.31765e-13 -1050.53 3.11239 
;
reactants 	1	27.9039
    200	6000	1000
    2.99298 0.0018949 -6.36859e-07 1.01043e-10 -5.95541e-15 -1651.89 5.69871 
    3.69952 -0.0016836 5.18165e-06 -3.68352e-09 8.32058e-13 -1730.15 2.53937 
;
burntProducts 	1	27.6334
    200	6000	1000
    3.0602 0.00182422 -5.93878e-07 8.93807e-11 -4.97595e-15 -10998.7 5.32209 
    3.54628 0.000378279 2.02797e-07 9.31602e-10 -6.84016e-13 -11102.1 2.90098 
;
products 	1	27.9039
    200	6000	1000
    3.06934 0.00169467 -5.54968e-07 8.42765e-11 -4.73964e-15 -8773.08 5.32962 
    3.55461 0.000132615 5.29029e-07 7.00269e-10 -6.2795e-13 -8868.02 2.94797 
;
Tad = 1950.66

phi = 0.77
ft = 0.0430238
fuel fuel	1	16.0428
    200	6000	1000
    1.63543 0.0100844 -3.36924e-06 5.34973e-10 -3.15528e-14 -10005.6 9.9937 
    5.14988 -0.013671 4.91801e-05 -4.84744e-08 1.66694e-11 -10246.6 -4.64132 
;
oxidant 	1	28.8504
    200	6000	1000
    3.10131 0.00124137 -4.18816e-07 6.64158e-11 -3.91274e-15 -985.266 5.35597 
    3.58378 -0.000727005 1.67057e-06 -1.09203e-10 -4.31765e-13 -1050.53 3.11239 
;
reactants 	1	27.8924
    200	6000	1000
    2.99166 0.00190286 -6.39514e-07 1.01465e-10 -5.98028e-15 -1660.01 5.70288 
    3.70092 -0.00169525 5.22439e-06 -3.72703e-09 8.47443e-13 -1738.42 2.53239 
;
burntProducts 	1	27.6334
[...]
;
burntProducts 	1	27.6334
    200	6000	1000
    3.0602 0.00182422 -5.93878e-07 8.93807e-11 -4.97595e-15 -10998.7 5.32209 
    3.54628 0.000378279 2.02797e-07 9.31602e-10 -6.84016e-13 -11102.1 2.90098 
;
products 	1	25.9324
    200	6000	1000
    2.85111 0.00303641 -1.00116e-06 1.54772e-10 -8.87613e-15 -10853 6.00765 
    3.78161 -0.00168347 7.39027e-06 -6.31878e-09 1.86262e-12 -10976.6 1.79414 
;
Tad = 1857.31

phi = 2.82
ft = 0.141374
fuel fuel	1	16.0428
    200	6000	1000
    1.63543 0.0100844 -3.36924e-06 5.34973e-10 -3.15528e-14 -10005.6 9.9937 
    5.14988 -0.013671 4.91801e-05 -4.84744e-08 1.66694e-11 -10246.6 -4.64132 
;
oxidant 	1	28.8504
    200	6000	1000
    3.10131 0.00124137 -4.18816e-07 6.64158e-11 -3.91274e-15 -985.266 5.35597 
    3.58378 -0.000727005 1.67057e-06 -1.09203e-10 -4.31765e-13 -1050.53 3.11239 
;
reactants 	1	25.9244
    200	6000	1000
    2.76642 0.00326161 -1.09285e-06 1.7346e-10 -1.02272e-14 -3046 6.41548 
    3.94156 -0.00368412 1.25243e-05 -1.11585e-08 3.47508e-12 -3151.43 1.34102 
;
burntProducts 	1	27.6334
    200	6000	1000
    3.0602 0.00182422 -5.93878e-07 8.93807e-11 -4.97595e-15 -10998.7 5.32209 
    3.54628 0.000378279 2.02797e-07 9.31602e-10 -6.84016e-13 -11102.1 2.90098 
;
products 	1	25.9244
    200	6000	1000
    2.85013 0.00304212 -1.00308e-06 1.5508e-10 -8.8945e-15 -10852.3 6.01088 
    3.78272 -0.00169318 7.42413e-06 -6.35293e-09 1.87462e-12 -10976 1.78892 
;
Tad = 1855.44

phi = 2.83
ft = 0.141804
fuel fuel	1	16.0428
    200	6000	1000
    1.63543 0.0100844 -3.36924e-06 5.34973e-10 -3.15528e-14 -10005.6 9.9937 
    5.14988 -0.013671 4.91801e-05 -4.84744e-08 1.66694e-11 -10246.6 -4.64132 
;
oxidant 	1	28.8504
    200	6000	1000
    3.10131 0.00124137 -4.18816e-07 6.64158e-11 -3.91274e-15 -985.266 5.35597 
    3.58378 -0.000727005 1.67057e-06 -1.09203e-10 -4.31765e-13 -1050.53 3.11239 
;
reactants 	1	25.9164
    200	6000	1000
    2.76551 0.00326713 -1.0947e-06 1.73752e-10 -1.02445e-14 -3051.64 6.41837 
    3.94254 -0.00369221 1.2554e-05 -1.11887e-08 3.48576e-12 -3157.17 1.33617 
;
burntProducts 	1	27.6334
    200	6000	1000
    3.0602 0.00182422 -5.93878e-07 8.93807e-11 -4.97595e-15 -10998.7 5.32209 
    3.54628 0.000378279 2.02797e-07 9.31602e-10 -6.84016e-13 -11102.1 2.90098 
;
products 	1	25.9164
    200	6000	1000
    2.84914 0.00304782 -1.005e-06 1.55387e-10 -8.91284e-15 -10851.6 6.01411 
    3.78383 -0.00170288 7.45793e-06 -6.38703e-09 1.88659e-12 -10975.4 1.78372 
;
Tad = 1853.58

phi = 2.84
ft = 0.142234
fuel fuel	1	16.0428
    200	6000	1000
    1.63543 0.0100844 -3.36924e-06 5.34973e-10 -3.15528e-14 -10005.6 9.9937 
    5.14988 -0.013671 4.91801e-05 -4.84744e-08 1.66694e-11 -10246.6 -4.64132 
;
oxidant 	1	28.8504
    200	6000	1000
    3.10131 0.00124137 -4.18816e-07 6.64158e-11 -3.91274e-15 -985.266 5.35597 
    3.58378 -0.000727005 1.67057e-06 -1.09203e-10 -4.31765e-13 -1050.53 3.11239 
;
reactants 	1	25.9084
    200	6000	1000
    2.76459 0.00327265 -1.09654e-06 1.74045e-10 -1.02617e-14 -3057.26 6.42126 
    3.94351 -0.00370028 1.25836e-05 -1.12188e-08 3.49643e-12 -3162.9 1.33134 
;
burntProducts 	1	27.6334
    200	6000	1000
    3.0602 0.00182422 -5.93878e-07 8.93807e-11 -4.97595e-15 -10998.7 5.32209 
    3.54628 0.000378279 2.02797e-07 9.31602e-10 -6.84016e-13 -11102.1 2.90098 
;
products 	1	25.9084
    200	6000	1000
    2.84816 0.00305351 -1.00691e-06 1.55694e-10 -8.93116e-15 -10850.9 6.01733 
    3.78493 -0.00171256 7.49167e-06 -6.42107e-09 1.89855e-12 -10974.8 1.77852 
;
Tad = 1851.73

phi = 2.85
ft = 0.142663
fuel fuel	1	16.0428
    200	6000	1000
    1.63543 0.0100844 -3.36924e-06 5.34973e-10 -3.15528e-14 -10005.6 9.9937 
    5.14988 -0.013671 4.91801e-05 -4.84744e-08 1.66694e-11 -10246.6 -4.64132 
;
oxidant 	1	28.8504
    200	6000	1000
    3.10131 0.00124137 -4.18816e-07 6.64158e-11 -3.91274e-15 -985.266 5.35597 
    3.58378 -0.000727005 1.67057e-06 -1.09203e-10 -4.31765e-13 -1050.53 3.11239 
;
reactants 	1	25.9005
    200	6000	1000
    2.76368 0.00327815 -1.09837e-06 1.74336e-10 -1.02789e-14 -3062.88 6.42415 
    3.94449 -0.00370834 1.26132e-05 -1.12489e-08 3.50707e-12 -3168.63 1.32651 
;
burntProducts 	1	27.6334
    200	6000	1000
    3.0602 0.00182422 -5.93878e-07 8.93807e-11 -4.97595e-15 -10998.7 5.32209 
    3.54628 0.000378279 2.02797e-07 9.31602e-10 -6.84016e-13 -11102.1 2.90098 
;
products 	1	25.9005
    200	6000	1000
    2.84718 0.0030592 -1.00882e-06 1.56001e-10 -8.94944e-15 -10850.2 6.02054 
    3.78603 -0.00172222 7.52537e-06 -6.45506e-09 1.91049e-12 -10974.2 1.77333 
;
Tad = 1849.88

phi = 2.86
ft = 0.143092
fuel fuel	1	16.0428
    200	6000	1000
    1.63543 0.0100844 -3.36924e-06 5.34973e-10 -3.15528e-14 -10005.6 9.9937 
    5.14988 -0.013671 4.91801e-05 -4.84744e-08 1.66694e-11 -10246.6 -4.64132 
;
oxidant 	1	28.8504
    200	6000	1000
    3.10131 0.00124137 -4.18816e-07 6.64158e-11 -3.91274e-15 -985.266 5.35597 
    3.58378 -0.000727005 1.67057e-06 -1.09203e-10 -4.31765e-13 -1050.53 3.11239 
;
reactants 	1	25.8925
    200	6000	1000
    2.76277 0.00328365 -1.10021e-06 1.74628e-10 -1.02961e-14 -3068.48 6.42703 
    3.94546 -0.00371638 1.26427e-05 -1.1279e-08 3.5177e-12 -3174.34 1.32169 
;
burntProducts 	1	27.6334
    200	6000	1000
    3.0602 0.00182422 -5.93878e-07 8.93807e-11 -4.97595e-15 -10998.7 5.32209 
    3.54628 0.000378279 2.02797e-07 9.31602e-10 -6.84016e-13 -11102.1 2.90098 
;
products 	1	25.8925
    200	6000	1000
    2.8462 0.00306487 -1.01073e-06 1.56307e-10 -8.96769e-15 -10849.5 6.02375 
    3.78713 -0.00173187 7.559e-06 -6.48899e-09 1.92241e-12 -10973.6 1.76815 
;
Tad = 1848.04

phi = 2.87
ft = 0.143521
fuel fuel	1	16.0428
    200	6000	1000
    1.63543 0.0100844 -3.36924e-06 5.34973e-10 -3.15528e-14 -10005.6 9.9937 
    5.14988 -0.013671 4.91801e-05 -4.84744e-08 1.66694e-11 -10246.6 -4.64132 
;
oxidant 	1	28.8504
    200	6000	1000
    3.10131 0.00124137 -4.18816e-07 6.64158e-11 -3.91274e-15 -985.266 5.35597 
    3.58378 -0.000727005 1.67057e-06 -1.09203e-10 -4.31765e-13 -1050.53 3.11239 
;
reactants 	1	25.8846
    200	6000	1000
    2.76186 0.00328914 -1.10204e-06 1.74918e-10 -1.03133e-14 -3074.08 6.42991 
    3.94643 -0.00372441 1.26722e-05 -1.1309e-08 3.52831e-12 -3180.05 1.31688 
;
burntProducts 	1	27.6334
    200	6000	1000
    3.0602 0.00182422 -5.93878e-07 8.93807e-11 -4.97595e-15 -10998.7 5.32209 
    3.54628 0.000378279 2.02797e-07 9.31602e-10 -6.84016e-13 -11102.1 2.90098 
;
products 	1	25.8846
    200	6000	1000
    2.84523 0.00307053 -1.01263e-06 1.56612e-10 -8.98591e-15 -10848.9 6.02695 
    3.78823 -0.0017415 7.59258e-06 -6.52286e-09 1.9343e-12 -10973 1.76298 
;
Tad = 1846.2

phi = 2.88
ft = 0.143949
fuel fuel	1	16.0428
    200	6000	1000
    1.63543 0.0100844 -3.36924e-06 5.34973e-10 -3.15528e-14 -10005.6 9.9937 
    5.14988 -0.013671 4.91801e-05 -4.84744e-08 1.66694e-11 -10246.6 -4.64132 
;
oxidant 	1	28.8504
    200	6000	1000
    3.10131 0.00124137 -4.18816e-07 6.64158e-11 -3.91274e-15 -985.266 5.35597 
    3.58378 -0.000727005 1.67057e-06 -1.09203e-10 -4.31765e-13 -1050.53 3.11239 
;
reactants 	1	25.8766
    200	6000	1000
    2.76095 0.00329462 -1.10386e-06 1.75209e-10 -1.03304e-14 -3079.67 6.43278 
    3.9474 -0.00373243 1.27017e-05 -1.1339e-08 3.53891e-12 -3185.75 1.31208 
;
burntProducts 	1	27.6334
    200	6000	1000
    3.0602 0.00182422 -5.93878e-07 8.93807e-11 -4.97595e-15 -10998.7 5.32209 
    3.54628 0.000378279 2.02797e-07 9.31602e-10 -6.84016e-13 -11102.1 2.90098 
;
products 	1	25.8766
    200	6000	1000
    2.84425 0.00307619 -1.01453e-06 1.56917e-10 -9.00411e-15 -10848.2 6.03015 
    3.78933 -0.00175112 7.62611e-06 -6.55669e-09 1.94618e-12 -10972.5 1.75782 
;
Tad = 1844.37

phi = 2.89
ft = 0.144377
fuel fuel	1	16.0428
    200	6000	1000
    1.63543 0.0100844 -3.36924e-06 5.34973e-10 -3.15528e-14 -10005.6 9.9937 
    5.14988 -0.013671 4.91801e-05 -4.84744e-08 1.66694e-11 -10246.6 -4.64132 
;
oxidant 	1	28.8504
    200	6000	1000
    3.10131 0.00124137 -4.18816e-07 6.64158e-11 -3.91274e-15 -985.266 5.35597 
    3.58378 -0.000727005 1.67057e-06 -1.09203e-10 -4.31765e-13 -1050.53 3.11239 
;
reactants 	1	25.8687
    200	6000	1000
    2.76004 0.00330008 -1.10569e-06 1.75498e-10 -1.03475e-14 -3085.25 6.43565 
    3.94837 -0.00374044 1.2731e-05 -1.13689e-08 3.54949e-12 -3191.43 1.30728 
;
burntProducts 	1	27.6334
    200	6000	1000
    3.0602 0.00182422 -5.93878e-07 8.93807e-11 -4.97595e-15 -10998.7 5.32209 
    3.54628 0.000378279 2.02797e-07 9.31602e-10 -6.84016e-13 -11102.1 2.90098 
;
products 	1	25.8687
    200	6000	1000
    2.84328 0.00308183 -1.01643e-06 1.57222e-10 -9.02227e-15 -10847.5 6.03334 
    3.79043 -0.00176072 7.65959e-06 -6.59045e-09 1.95804e-12 -10971.9 1.75266 
;
Tad = 1842.54

phi = 2.9
ft = 0.144804
fuel fuel	1	16.0428
    200	6000	1000
    1.63543 0.0100844 -3.36924e-06 5.34973e-10 -3.15528e-14 -10005.6 9.9937 
    5.14988 -0.013671 4.91801e-05 -4.84744e-08 1.66694e-11 -10246.6 -4.64132 
;
oxidant 	1	28.8504
    200	6000	1000
    3.10131 0.00124137 -4.18816e-07 6.64158e-11 -3.91274e-15 -985.266 5.35597 
    3.58378 -0.000727005 1.67057e-06 -1.09203e-10 -4.31765e-13 -1050.53 3.11239 
;
reactants 	1	25.8608
    200	6000	1000
    2.75914 0.00330555 -1.10751e-06 1.75788e-10 -1.03646e-14 -3090.82 6.43852 
    3.94934 -0.00374843 1.27604e-05 -1.13987e-08 3.56005e-12 -3197.11 1.3025 
;
burntProducts 	1	27.6334
    200	6000	1000
    3.0602 0.00182422 -5.93878e-07 8.93807e-11 -4.97595e-15 -10998.7 5.32209 
    3.54628 0.000378279 2.02797e-07 9.31602e-10 -6.84016e-13 -11102.1 2.90098 
;
products 	1	25.8608
    200	6000	1000
    2.8423 0.00308747 -1.01832e-06 1.57526e-10 -9.04041e-15 -10846.8 6.03653 
    3.79152 -0.00177031 7.69301e-06 -6.62416e-09 1.96989e-12 -10971.3 1.74752 
;
Tad = 1840.72

phi = 2.91
ft = 0.145231
fuel fuel	1	16.0428
    200	6000	1000
    1.63543 0.0100844 -3.36924e-06 5.34973e-10 -3.15528e-14 -10005.6 9.9937 
    5.14988 -0.013671 4.91801e-05 -4.84744e-08 1.66694e-11 -10246.6 -4.64132 
;
oxidant 	1	28.8504
    200	6000	1000
    3.10131 0.00124137 -4.18816e-07 6.64158e-11 -3.91274e-15 -985.266 5.35597 
    3.58378 -0.000727005 1.67057e-06 -1.09203e-10 -4.31765e-13 -1050.53 3.11239 
;
reactants 	1	25.8529
    200	6000	1000
    2.75823 0.003311 -1.10933e-06 1.76077e-10 -1.03816e-14 -3096.38 6.44138 
    3.95031 -0.00375641 1.27897e-05 -1.14286e-08 3.57059e-12 -3202.78 1.29772 
;
burntProducts 	1	27.6334
    200	6000	1000
    3.0602 0.00182422 -5.93878e-07 8.93807e-11 -4.97595e-15 -10998.7 5.32209 
    3.54628 0.000378279 2.02797e-07 9.31602e-10 -6.84016e-13 -11102.1 2.90098 
;
products 	1	25.8529
    200	6000	1000
    2.84133 0.0030931 -1.02021e-06 1.5783e-10 -9.05851e-15 -10846.1 6.03971 
    3.79261 -0.00177988 7.72637e-06 -6.65782e-09 1.98171e-12 -10970.7 1.74238 
;
Tad = 1838.9

phi = 2.92
ft = 0.145657
fuel fuel	1	16.0428
    200	6000	1000
    1.63543 0.0100844 -3.36924e-06 5.34973e-10 -3.15528e-14 -10005.6 9.9937 
    5.14988 -0.013671 4.91801e-05 -4.84744e-08 1.66694e-11 -10246.6 -4.64132 
;
oxidant 	1	28.8504
    200	6000	1000
    3.10131 0.00124137 -4.18816e-07 6.64158e-11 -3.91274e-15 -985.266 5.35597 
    3.58378 -0.000727005 1.67057e-06 -1.09203e-10 -4.31765e-13 -1050.53 3.11239 
;
reactants 	1	25.845
    200	6000	1000
    2.75733 0.00331644 -1.11115e-06 1.76365e-10 -1.03986e-14 -3101.93 6.44423 
    3.95127 -0.00376438 1.28189e-05 -1.14583e-08 3.58112e-12 -3208.44 1.29294 
;
burntProducts 	1	27.6334
    200	6000	1000
    3.0602 0.00182422 -5.93878e-07 8.93807e-11 -4.97595e-15 -10998.7 5.32209 
    3.54628 0.000378279 2.02797e-07 9.31602e-10 -6.84016e-13 -11102.1 2.90098 
;
products 	1	25.845
    200	6000	1000
    2.84036 0.00309871 -1.0221e-06 1.58133e-10 -9.07659e-15 -10845.5 6.04289 
    3.79371 -0.00178944 7.75969e-06 -6.69143e-09 1.99351e-12 -10970.1 1.73725 
;
Tad = 1837.09

phi = 2.93
ft = 0.146083
fuel fuel	1	16.0428
    200	6000	1000
    1.63543 0.0100844 -3.36924e-06 5.34973e-10 -3.15528e-14 -10005.6 9.9937 
    5.14988 -0.013671 4.91801e-05 -4.84744e-08 1.66694e-11 -10246.6 -4.64132 
;
oxidant 	1	28.8504
    200	6000	1000
    3.10131 0.00124137 -4.18816e-07 6.64158e-11 -3.91274e-15 -985.266 5.35597 
    3.58378 -0.000727005 1.67057e-06 -1.09203e-10 -4.31765e-13 -1050.53 3.11239 
;
reactants 	1	25.8372
    200	6000	1000
    2.75643 0.00332188 -1.11296e-06 1.76653e-10 -1.04156e-14 -3107.47 6.44708 
    3.95223 -0.00377233 1.28481e-05 -1.14881e-08 3.59162e-12 -3214.09 1.28818 
;
burntProducts 	1	27.6334
    200	6000	1000
    3.0602 0.00182422 -5.93878e-07 8.93807e-11 -4.97595e-15 -10998.7 5.32209 
    3.54628 0.000378279 2.02797e-07 9.31602e-10 -6.84016e-13 -11102.1 2.90098 
;
products 	1	25.8372
    200	6000	1000
    2.8394 0.00310432 -1.02398e-06 1.58435e-10 -9.09464e-15 -10844.8 6.04606 
    3.79479 -0.00179898 7.79294e-06 -6.72498e-09 2.0053e-12 -10969.5 1.73213 
;
Tad = 1835.29

phi = 2.94
ft = 0.146509
fuel fuel	1	16.0428
    200	6000	1000
    1.63543 0.0100844 -3.36924e-06 5.34973e-10 -3.15528e-14 -10005.6 9.9937 
    5.14988 -0.013671 4.91801e-05 -4.84744e-08 1.66694e-11 -10246.6 -4.64132 
;
oxidant 	1	28.8504
    200	6000	1000
    3.10131 0.00124137 -4.18816e-07 6.64158e-11 -3.91274e-15 -985.266 5.35597 
    3.58378 -0.000727005 1.67057e-06 -1.09203e-10 -4.31765e-13 -1050.53 3.11239 
;
reactants 	1	25.8293
    200	6000	1000
    2.75553 0.0033273 -1.11477e-06 1.7694e-10 -1.04326e-14 -3113.01 6.44993 
    3.95319 -0.00378027 1.28773e-05 -1.15177e-08 3.60212e-12 -3219.74 1.28342 
;
burntProducts 	1	27.6334
    200	6000	1000
    3.0602 0.00182422 -5.93878e-07 8.93807e-11 -4.97595e-15 -10998.7 5.32209 
    3.54628 0.000378279 2.02797e-07 9.31602e-10 -6.84016e-13 -11102.1 2.90098 
;
products 	1	25.8293
    200	6000	1000
    2.83843 0.00310992 -1.02586e-06 1.58737e-10 -9.11265e-15 -10844.1 6.04923 
    3.79588 -0.0018085 7.82615e-06 -6.75847e-09 2.01706e-12 -10969 1.72701 
;
Tad = 1833.49

phi = 2.95
ft = 0.146934
fuel fuel	1	16.0428
    200	6000	1000
    1.63543 0.0100844 -3.36924e-06 5.34973e-10 -3.15528e-14 -10005.6 9.9937 
    5.14988 -0.013671 4.91801e-05 -4.84744e-08 1.66694e-11 -10246.6 -4.64132 
;
oxidant 	1	28.8504
    200	6000	1000
    3.10131 0.00124137 -4.18816e-07 6.64158e-11 -3.91274e-15 -985.266 5.35597 
    3.58378 -0.000727005 1.67057e-06 -1.09203e-10 -4.31765e-13 -1050.53 3.11239 
;
reactants 	1	25.8214
    200	6000	1000
    2.75463 0.00333272 -1.11658e-06 1.77227e-10 -1.04495e-14 -3118.54 6.45277 
    3.95415 -0.0037882 1.29064e-05 -1.15474e-08 3.61259e-12 -3225.37 1.27867 
;
burntProducts 	1	27.6334
    200	6000	1000
    3.0602 0.00182422 -5.93878e-07 8.93807e-11 -4.97595e-15 -10998.7 5.32209 
    3.54628 0.000378279 2.02797e-07 9.31602e-10 -6.84016e-13 -11102.1 2.90098 
;
products 	1	25.8214
    200	6000	1000
    2.83747 0.00311552 -1.02774e-06 1.59039e-10 -9.13064e-15 -10843.5 6.05239 
    3.79697 -0.00181801 7.8593e-06 -6.79192e-09 2.02881e-12 -10968.4 1.72191 
;
Tad = 1831.69

phi = 2.96
ft = 0.147358
fuel fuel	1	16.0428
    200	6000	1000
    1.63543 0.0100844 -3.36924e-06 5.34973e-10 -3.15528e-14 -10005.6 9.9937 
    5.14988 -0.013671 4.91801e-05 -4.84744e-08 1.66694e-11 -10246.6 -4.64132 
;
oxidant 	1	28.8504
    200	6000	1000
    3.10131 0.00124137 -4.18816e-07 6.64158e-11 -3.91274e-15 -985.266 5.35597 
    3.58378 -0.000727005 1.67057e-06 -1.09203e-10 -4.31765e-13 -1050.53 3.11239 
;
reactants 	1	25.8136
    200	6000	1000
    2.75374 0.00333813 -1.11838e-06 1.77514e-10 -1.04664e-14 -3124.05 6.4556 
    3.95511 -0.00379612 1.29354e-05 -1.15769e-08 3.62305e-12 -3230.99 1.27393 
;
burntProducts 	1	27.6334
    200	6000	1000
    3.0602 0.00182422 -5.93878e-07 8.93807e-11 -4.97595e-15 -10998.7 5.32209 
    3.54628 0.000378279 2.02797e-07 9.31602e-10 -6.84016e-13 -11102.1 2.90098 
;
products 	1	25.8136
    200	6000	1000
    2.8365 0.0031211 -1.02962e-06 1.5934e-10 -9.1486e-15 -10842.8 6.05555 
    3.79805 -0.00182751 7.8924e-06 -6.82531e-09 2.04053e-12 -10967.8 1.71681 
;
Tad = 1829.91

phi = 2.97
ft = 0.147783
fuel fuel	1	16.0428
    200	6000	1000
    1.63543 0.0100844 -3.36924e-06 5.34973e-10 -3.15528e-14 -10005.6 9.9937 
    5.14988 -0.013671 4.91801e-05 -4.84744e-08 1.66694e-11 -10246.6 -4.64132 
;
oxidant 	1	28.8504
    200	6000	1000
    3.10131 0.00124137 -4.18816e-07 6.64158e-11 -3.91274e-15 -985.266 5.35597 
    3.58378 -0.000727005 1.67057e-06 -1.09203e-10 -4.31765e-13 -1050.53 3.11239 
;
reactants 	1	25.8058
    200	6000	1000
    2.75284 0.00334353 -1.12018e-06 1.778e-10 -1.04833e-14 -3129.56 6.45844 
    3.95607 -0.00380402 1.29644e-05 -1.16065e-08 3.63349e-12 -3236.61 1.26919 
;
burntProducts 	1	27.6334
    200	6000	1000
    3.0602 0.00182422 -5.93878e-07 8.93807e-11 -4.97595e-15 -10998.7 5.32209 
    3.54628 0.000378279 2.02797e-07 9.31602e-10 -6.84016e-13 -11102.1 2.90098 
;
products 	1	25.8058
    200	6000	1000
    2.83554 0.00312667 -1.03149e-06 1.59641e-10 -9.16654e-15 -10842.1 6.0587 
    3.79913 -0.00183699 7.92545e-06 -6.85864e-09 2.05224e-12 -10967.2 1.71172 
;
Tad = 1828.12

phi = 2.98
ft = 0.148206
fuel fuel	1	16.0428
    200	6000	1000
    1.63543 0.0100844 -3.36924e-06 5.34973e-10 -3.15528e-14 -10005.6 9.9937 
    5.14988 -0.013671 4.91801e-05 -4.84744e-08 1.66694e-11 -10246.6 -4.64132 
;
oxidant 	1	28.8504
    200	6000	1000
    3.10131 0.00124137 -4.18816e-07 6.64158e-11 -3.91274e-15 -985.266 5.35597 
    3.58378 -0.000727005 1.67057e-06 -1.09203e-10 -4.31765e-13 -1050.53 3.11239 
;
reactants 	1	25.798
    200	6000	1000
    2.75195 0.00334892 -1.12198e-06 1.78086e-10 -1.05001e-14 -3135.06 6.46126 
    3.95702 -0.00381192 1.29934e-05 -1.1636e-08 3.64392e-12 -3242.22 1.26447 
;
burntProducts 	1	27.6334
    200	6000	1000
    3.0602 0.00182422 -5.93878e-07 8.93807e-11 -4.97595e-15 -10998.7 5.32209 
    3.54628 0.000378279 2.02797e-07 9.31602e-10 -6.84016e-13 -11102.1 2.90098 
;
products 	1	25.798
    200	6000	1000
    2.83458 0.00313224 -1.03336e-06 1.59941e-10 -9.18444e-15 -10841.4 6.06185 
    3.80021 -0.00184645 7.95844e-06 -6.89192e-09 2.06393e-12 -10966.7 1.70664 
;
Tad = 1826.34

phi = 2.99
ft = 0.14863
fuel fuel	1	16.0428
    200	6000	1000
    1.63543 0.0100844 -3.36924e-06 5.34973e-10 -3.15528e-14 -10005.6 9.9937 
    5.14988 -0.013671 4.91801e-05 -4.84744e-08 1.66694e-11 -10246.6 -4.64132 
;
oxidant 	1	28.8504
    200	6000	1000
    3.10131 0.00124137 -4.18816e-07 6.64158e-11 -3.91274e-15 -985.266 5.35597 
    3.58378 -0.000727005 1.67057e-06 -1.09203e-10 -4.31765e-13 -1050.53 3.11239 
;
reactants 	1	25.7902
    200	6000	1000
    2.75106 0.0033543 -1.12378e-06 1.78371e-10 -1.0517e-14 -3140.55 6.46409 
    3.95797 -0.00381979 1.30223e-05 -1.16654e-08 3.65433e-12 -3247.81 1.25975 
;
burntProducts 	1	27.6334
    200	6000	1000
    3.0602 0.00182422 -5.93878e-07 8.93807e-11 -4.97595e-15 -10998.7 5.32209 
    3.54628 0.000378279 2.02797e-07 9.31602e-10 -6.84016e-13 -11102.1 2.90098 
;
products 	1	25.7902
    200	6000	1000
    2.83362 0.00313779 -1.03523e-06 1.60241e-10 -9.20232e-15 -10840.8 6.06499 
    3.80129 -0.0018559 7.99138e-06 -6.92515e-09 2.07561e-12 -10966.1 1.70157 
;
Tad = 1824.57

phi = 3
ft = 0.149053
fuel fuel	1	16.0428
    200	6000	1000
    1.63543 0.0100844 -3.36924e-06 5.34973e-10 -3.15528e-14 -10005.6 9.9937 
    5.14988 -0.013671 4.91801e-05 -4.84744e-08 1.66694e-11 -10246.6 -4.64132 
;
oxidant 	1	28.8504
    200	6000	1000
    3.10131 0.00124137 -4.18816e-07 6.64158e-11 -3.91274e-15 -985.266 5.35597 
    3.58378 -0.000727005 1.67057e-06 -1.09203e-10 -4.31765e-13 -1050.53 3.11239 
;
reactants 	1	25.7824
    200	6000	1000
    2.75017 0.00335967 -1.12557e-06 1.78656e-10 -1.05337e-14 -3146.03 6.4669 
    3.95893 -0.00382766 1.30512e-05 -1.16948e-08 3.66472e-12 -3253.4 1.25504 
;
burntProducts 	1	27.6334
    200	6000	1000
    3.0602 0.00182422 -5.93878e-07 8.93807e-11 -4.97595e-15 -10998.7 5.32209 
    3.54628 0.000378279 2.02797e-07 9.31602e-10 -6.84016e-13 -11102.1 2.90098 
;
products 	1	25.7824
    200	6000	1000
    2.83267 0.00314334 -1.03709e-06 1.6054e-10 -9.22016e-15 -10840.1 6.06813 
    3.80237 -0.00186533 8.02427e-06 -6.95833e-09 2.08726e-12 -10965.5 1.6965 
;
Tad = 1822.8


end
