/*---------------------------------------------------------------------------*\
| =========                 |                                                 |
| \\      /  F ield         | OpenFOAM: The Open Source CFD Toolbox           |
|  \\    /   O peration     | Version:  1.6                                   |
|   \\  /    A nd           | Web:      www.OpenFOAM.com                      |
|    \\/     M anipulation  |                                                 |
\*---------------------------------------------------------------------------*/
Exec   : adiabaticFlameT -case . controlDict
Date   : Jul 14 2008
Time   : 14:36:39
Host   : auglx106
PID    : 21203
Case   : ./.
nProcs : 1

// * * * * * * * * * * * * * * * * * * * * * * * * * * * * * * * * * * * * * //

Reading Burcat data dictionary
stoichiometricAirFuelMassRatio stoichiometricAirFuelMassRatio [0 0 0 0 0 0 0] 15.5776;
phi = 0.01
ft = 0.000641534
fuel fuel	1	44.0962
    300	5000	1000
    7.53414 0.0188722 -6.27185e-06 9.14756e-10 -4.78381e-14 -16467.5 -17.8923 
    0.933554 0.0264246 6.10597e-06 -2.19775e-08 9.51493e-12 -13958.5 19.2017 
;
oxidant 	1	28.8504
    200	6000	1000
    3.10131 0.00124137 -4.18816e-07 6.64158e-11 -3.91274e-15 -985.266 5.35597 
    3.58378 -0.000727005 1.67057e-06 -1.09203e-10 -4.31765e-13 -1050.53 3.11239 
;
reactants 	1	28.8568
    300	5000	1000
    3.10317 0.00124878 -4.21273e-07 6.6772e-11 -3.93118e-15 -991.766 5.34621 
    3.58266 -0.000715606 1.67243e-06 -1.18384e-10 -4.2759e-13 -1055.95 3.11914 
;
burntProducts 	1	28.3233
    200	6000	1000
    3.10558 0.00179747 -5.94696e-07 9.05605e-11 -5.08443e-15 -11003.6 5.12104 
    3.49796 0.000638555 -1.83881e-07 1.20989e-09 -7.68691e-13 -11080.5 3.18188 
;
products 	1	28.8447
    300	5000	1000
    3.10136 0.0012474 -4.20721e-07 6.66773e-11 -3.92543e-15 -1093.77 5.35342 
    3.58285 -0.000712215 1.65048e-06 -9.49164e-11 -4.35415e-13 -1159.16 3.11314 
;
Tad = 329.348

phi = 0.02
ft = 0.00128225
fuel fuel	1	44.0962
    300	5000	1000
    7.53414 0.0188722 -6.27185e-06 9.14756e-10 -4.78381e-14 -16467.5 -17.8923 
    0.933554 0.0264246 6.10597e-06 -2.19775e-08 9.51493e-12 -13958.5 19.2017 
;
oxidant 	1	28.8504
    200	6000	1000
    3.10131 0.00124137 -4.18816e-07 6.64158e-11 -3.91274e-15 -985.266 5.35597 
    3.58378 -0.000727005 1.67057e-06 -1.09203e-10 -4.31765e-13 -1050.53 3.11239 
;
reactants 	1	28.8632
    300	5000	1000
    3.10503 0.00125617 -4.23728e-07 6.71278e-11 -3.94961e-15 -998.26 5.33645 
    3.58155 -0.000704217 1.67429e-06 -1.27557e-10 -4.23417e-13 -1061.36 3.12589 
;
burntProducts 	1	28.3233
    200	6000	1000
    3.10558 0.00179747 -5.94696e-07 9.05605e-11 -5.08443e-15 -11003.6 5.12104 
    3.49796 0.000638555 -1.83881e-07 1.20989e-09 -7.68691e-13 -11080.5 3.18188 
;
products 	1	28.839
    300	5000	1000
    3.1014 0.00125341 -4.22622e-07 6.69384e-11 -3.9381e-15 -1202.1 5.35088 
    3.58192 -0.000697449 1.63043e-06 -8.06534e-11 -4.39058e-13 -1267.62 3.11389 
;
Tad = 358.542

phi = 0.03
ft = 0.00192214
fuel fuel	1	44.0962
    300	5000	1000
    7.53414 0.0188722 -6.27185e-06 9.14756e-10 -4.78381e-14 -16467.5 -17.8923 
    0.933554 0.0264246 6.10597e-06 -2.19775e-08 9.51493e-12 -13958.5 19.2017 
;
oxidant 	1	28.8504
    200	6000	1000
    3.10131 0.00124137 -4.18816e-07 6.64158e-11 -3.91274e-15 -985.266 5.35597 
    3.58378 -0.000727005 1.67057e-06 -1.09203e-10 -4.31765e-13 -1050.53 3.11239 
;
reactants 	1	28.8696
    300	5000	1000
    3.10689 0.00126356 -4.26181e-07 6.74834e-11 -3.96802e-15 -1004.75 5.32671 
    3.58044 -0.000692837 1.67615e-06 -1.36723e-10 -4.19248e-13 -1066.77 3.13264 
;
burntProducts 	1	28.3233
    200	6000	1000
    3.10558 0.00179747 -5.94696e-07 9.05605e-11 -5.08443e-15 -11003.6 5.12104 
    3.49796 0.000638555 -1.83881e-07 1.20989e-09 -7.68691e-13 -11080.5 3.18188 
;
products 	1	28.8333
    300	5000	1000
    3.10145 0.00125941 -4.24521e-07 6.7199e-11 -3.95075e-15 -1310.24 5.34834 
    3.58099 -0.000682709 1.61041e-06 -6.64143e-11 -4.42695e-13 -1375.89 3.11464 
;
Tad = 387.562

phi = 0.04
ft = 0.00256121
fuel fuel	1	44.0962
    300	5000	1000
    7.53414 0.0188722 -6.27185e-06 9.14756e-10 -4.78381e-14 -16467.5 -17.8923 
    0.933554 0.0264246 6.10597e-06 -2.19775e-08 9.51493e-12 -13958.5 19.2017 
;
oxidant 	1	28.8504
    200	6000	1000
    3.10131 0.00124137 -4.18816e-07 6.64158e-11 -3.91274e-15 -985.266 5.35597 
    3.58378 -0.000727005 1.67057e-06 -1.09203e-10 -4.31765e-13 -1050.53 3.11239 
;
reactants 	1	28.876
    300	5000	1000
    3.10874 0.00127095 -4.28632e-07 6.78386e-11 -3.98641e-15 -1011.23 5.31697 
    3.57933 -0.000681467 1.67801e-06 -1.4588e-10 -4.15083e-13 -1072.18 3.13937 
;
burntProducts 	1	28.3233
    200	6000	1000
    3.10558 0.00179747 -5.94696e-07 9.05605e-11 -5.08443e-15 -11003.6 5.12104 
    3.49796 0.000638555 -1.83881e-07 1.20989e-09 -7.68691e-13 -11080.5 3.18188 
;
products 	1	28.8276
    300	5000	1000
    3.10149 0.00126541 -4.26416e-07 6.74592e-11 -3.96338e-15 -1418.21 5.34581 
    3.58007 -0.000667993 1.59043e-06 -5.21991e-11 -4.46326e-13 -1483.97 3.11539 
;
Tad = 416.39

phi = 0.05
ft = 0.00319946
fuel fuel	1	44.0962
    300	5000	1000
    7.53414 0.0188722 -6.27185e-06 9.14756e-10 -4.78381e-14 -16467.5 -17.8923 
    0.933554 0.0264246 6.10597e-06 -2.19775e-08 9.51493e-12 -13958.5 19.2017 
;
oxidant 	1	28.8504
    200	6000	1000
    3.10131 0.00124137 -4.18816e-07 6.64158e-11 -3.91274e-15 -985.266 5.35597 
    3.58378 -0.000727005 1.67057e-06 -1.09203e-10 -4.31765e-13 -1050.53 3.11239 
;
reactants 	1	28.8823
    300	5000	1000
    3.1106 0.00127832 -4.31081e-07 6.81936e-11 -4.00479e-15 -1017.71 5.30725 
    3.57822 -0.000670106 1.67986e-06 -1.5503e-10 -4.10921e-13 -1077.58 3.14611 
;
burntProducts 	1	28.3233
    200	6000	1000
    3.10558 0.00179747 -5.94696e-07 9.05605e-11 -5.08443e-15 -11003.6 5.12104 
    3.49796 0.000638555 -1.83881e-07 1.20989e-09 -7.68691e-13 -11080.5 3.18188 
;
products 	1	28.8219
    300	5000	1000
    3.10154 0.00127139 -4.28309e-07 6.7719e-11 -3.97598e-15 -1525.99 5.34329 
    3.57914 -0.000653301 1.57048e-06 -3.80077e-11 -4.4995e-13 -1591.88 3.11614 
;
Tad = 445.011

phi = 0.06
ft = 0.0038369
fuel fuel	1	44.0962
    300	5000	1000
    7.53414 0.0188722 -6.27185e-06 9.14756e-10 -4.78381e-14 -16467.5 -17.8923 
    0.933554 0.0264246 6.10597e-06 -2.19775e-08 9.51493e-12 -13958.5 19.2017 
;
oxidant 	1	28.8504
    200	6000	1000
    3.10131 0.00124137 -4.18816e-07 6.64158e-11 -3.91274e-15 -985.266 5.35597 
    3.58378 -0.000727005 1.67057e-06 -1.09203e-10 -4.31765e-13 -1050.53 3.11239 
;
reactants 	1	28.8887
    300	5000	1000
    3.11245 0.00128569 -4.33528e-07 6.85483e-11 -4.02315e-15 -1024.18 5.29753 
    3.57711 -0.000658755 1.68172e-06 -1.64173e-10 -4.06763e-13 -1082.98 3.15283 
;
burntProducts 	1	28.3233
    200	6000	1000
    3.10558 0.00179747 -5.94696e-07 9.05605e-11 -5.08443e-15 -11003.6 5.12104 
    3.49796 0.000638555 -1.83881e-07 1.20989e-09 -7.68691e-13 -11080.5 3.18188 
;
products 	1	28.8163
    300	5000	1000
    3.10159 0.00127736 -4.30198e-07 6.79783e-11 -3.98857e-15 -1633.59 5.34076 
    3.57822 -0.000638635 1.55056e-06 -2.38399e-11 -4.53569e-13 -1699.61 3.11689 
;
Tad = 473.413

phi = 0.07
ft = 0.00447352
fuel fuel	1	44.0962
    300	5000	1000
    7.53414 0.0188722 -6.27185e-06 9.14756e-10 -4.78381e-14 -16467.5 -17.8923 
    0.933554 0.0264246 6.10597e-06 -2.19775e-08 9.51493e-12 -13958.5 19.2017 
;
oxidant 	1	28.8504
    200	6000	1000
    3.10131 0.00124137 -4.18816e-07 6.64158e-11 -3.91274e-15 -985.266 5.35597 
    3.58378 -0.000727005 1.67057e-06 -1.09203e-10 -4.31765e-13 -1050.53 3.11239 
;
reactants 	1	28.8951
    300	5000	1000
    3.1143 0.00129306 -4.35973e-07 6.89026e-11 -4.0415e-15 -1030.65 5.28782 
    3.57601 -0.000647414 1.68357e-06 -1.73308e-10 -4.02608e-13 -1088.37 3.15955 
;
burntProducts 	1	28.3233
    200	6000	1000
    3.10558 0.00179747 -5.94696e-07 9.05605e-11 -5.08443e-15 -11003.6 5.12104 
    3.49796 0.000638555 -1.83881e-07 1.20989e-09 -7.68691e-13 -11080.5 3.18188 
;
products 	1	28.8106
    300	5000	1000
    3.10163 0.00128332 -4.32084e-07 6.82372e-11 -4.00113e-15 -1741.01 5.33824 
    3.5773 -0.000623992 1.53068e-06 -9.69588e-12 -4.57182e-13 -1807.16 3.11763 
;
Tad = 501.584

phi = 0.08
ft = 0.00510933
fuel fuel	1	44.0962
    300	5000	1000
    7.53414 0.0188722 -6.27185e-06 9.14756e-10 -4.78381e-14 -16467.5 -17.8923 
    0.933554 0.0264246 6.10597e-06 -2.19775e-08 9.51493e-12 -13958.5 19.2017 
;
oxidant 	1	28.8504
    200	6000	1000
    3.10131 0.00124137 -4.18816e-07 6.64158e-11 -3.91274e-15 -985.266 5.35597 
    3.58378 -0.000727005 1.67057e-06 -1.09203e-10 -4.31765e-13 -1050.53 3.11239 
;
reactants 	1	28.9015
    300	5000	1000
    3.11615 0.00130042 -4.38416e-07 6.92567e-11 -4.05984e-15 -1037.11 5.27811 
    3.5749 -0.000636081 1.68542e-06 -1.82435e-10 -3.98456e-13 -1093.76 3.16627 
;
burntProducts 	1	28.3233
    200	6000	1000
    3.10558 0.00179747 -5.94696e-07 9.05605e-11 -5.08443e-15 -11003.6 5.12104 
    3.49796 0.000638555 -1.83881e-07 1.20989e-09 -7.68691e-13 -11080.5 3.18188 
;
products 	1	28.805
    300	5000	1000
    3.10168 0.00128928 -4.33966e-07 6.84957e-11 -4.01367e-15 -1848.25 5.33573 
    3.57638 -0.000609374 1.51082e-06 4.42458e-12 -4.60789e-13 -1914.53 3.11837 
;
Tad = 529.516

phi = 0.09
ft = 0.00574433
fuel fuel	1	44.0962
    300	5000	1000
    7.53414 0.0188722 -6.27185e-06 9.14756e-10 -4.78381e-14 -16467.5 -17.8923 
    0.933554 0.0264246 6.10597e-06 -2.19775e-08 9.51493e-12 -13958.5 19.2017 
;
oxidant 	1	28.8504
    200	6000	1000
    3.10131 0.00124137 -4.18816e-07 6.64158e-11 -3.91274e-15 -985.266 5.35597 
    3.58378 -0.000727005 1.67057e-06 -1.09203e-10 -4.31765e-13 -1050.53 3.11239 
;
reactants 	1	28.9078
    300	5000	1000
    3.118 0.00130777 -4.40857e-07 6.96105e-11 -4.07815e-15 -1043.57 5.26842 
    3.5738 -0.000624759 1.68727e-06 -1.91554e-10 -3.94308e-13 -1099.14 3.17298 
;
burntProducts 	1	28.3233
    200	6000	1000
    3.10558 0.00179747 -5.94696e-07 9.05605e-11 -5.08443e-15 -11003.6 5.12104 
    3.49796 0.000638555 -1.83881e-07 1.20989e-09 -7.68691e-13 -11080.5 3.18188 
;
products 	1	28.7994
    300	5000	1000
    3.10172 0.00129522 -4.35846e-07 6.87537e-11 -4.02619e-15 -1955.32 5.33322 
    3.57547 -0.000594781 1.49101e-06 1.85215e-11 -4.64389e-13 -2021.72 3.11912 
;
Tad = 557.201

phi = 0.1
ft = 0.00637852
fuel fuel	1	44.0962
    300	5000	1000
    7.53414 0.0188722 -6.27185e-06 9.14756e-10 -4.78381e-14 -16467.5 -17.8923 
    0.933554 0.0264246 6.10597e-06 -2.19775e-08 9.51493e-12 -13958.5 19.2017 
;
oxidant 	1	28.8504
    200	6000	1000
    3.10131 0.00124137 -4.18816e-07 6.64158e-11 -3.91274e-15 -985.266 5.35597 
    3.58378 -0.000727005 1.67057e-06 -1.09203e-10 -4.31765e-13 -1050.53 3.11239 
;
reactants 	1	28.9142
    300	5000	1000
    3.11985 0.00131511 -4.43296e-07 6.9964e-11 -4.09646e-15 -1050.02 5.25873 
    3.57269 -0.000613445 1.68912e-06 -2.00666e-10 -3.90164e-13 -1104.52 3.17968 
;
burntProducts 	1	28.3233
    200	6000	1000
    3.10558 0.00179747 -5.94696e-07 9.05605e-11 -5.08443e-15 -11003.6 5.12104 
    3.49796 0.000638555 -1.83881e-07 1.20989e-09 -7.68691e-13 -11080.5 3.18188 
;
products 	1	28.7937
    300	5000	1000
    3.10177 0.00130115 -4.37722e-07 6.90113e-11 -4.03869e-15 -2062.2 5.33071 
    3.57455 -0.000580211 1.47122e-06 3.25949e-11 -4.67984e-13 -2128.73 3.11986 
;
Tad = 584.636

phi = 0.11
ft = 0.00701189
fuel fuel	1	44.0962
    300	5000	1000
    7.53414 0.0188722 -6.27185e-06 9.14756e-10 -4.78381e-14 -16467.5 -17.8923 
    0.933554 0.0264246 6.10597e-06 -2.19775e-08 9.51493e-12 -13958.5 19.2017 
;
oxidant 	1	28.8504
    200	6000	1000
    3.10131 0.00124137 -4.18816e-07 6.64158e-11 -3.91274e-15 -985.266 5.35597 
    3.58378 -0.000727005 1.67057e-06 -1.09203e-10 -4.31765e-13 -1050.53 3.11239 
;
reactants 	1	28.9205
    300	5000	1000
    3.12169 0.00132245 -4.45732e-07 7.03171e-11 -4.11474e-15 -1056.46 5.24905 
    3.57159 -0.000602142 1.69097e-06 -2.0977e-10 -3.86023e-13 -1109.89 3.18638 
;
burntProducts 	1	28.3233
    200	6000	1000
    3.10558 0.00179747 -5.94696e-07 9.05605e-11 -5.08443e-15 -11003.6 5.12104 
    3.49796 0.000638555 -1.83881e-07 1.20989e-09 -7.68691e-13 -11080.5 3.18188 
;
products 	1	28.7881
    300	5000	1000
    3.10181 0.00130708 -4.39596e-07 6.92685e-11 -4.05117e-15 -2168.91 5.32821 
    3.57364 -0.000565667 1.45147e-06 4.66449e-11 -4.71573e-13 -2235.56 3.1206 
;
Tad = 611.816

phi = 0.12
ft = 0.00764447
fuel fuel	1	44.0962
    300	5000	1000
    7.53414 0.0188722 -6.27185e-06 9.14756e-10 -4.78381e-14 -16467.5 -17.8923 
    0.933554 0.0264246 6.10597e-06 -2.19775e-08 9.51493e-12 -13958.5 19.2017 
;
oxidant 	1	28.8504
    200	6000	1000
    3.10131 0.00124137 -4.18816e-07 6.64158e-11 -3.91274e-15 -985.266 5.35597 
    3.58378 -0.000727005 1.67057e-06 -1.09203e-10 -4.31765e-13 -1050.53 3.11239 
;
reactants 	1	28.9269
    300	5000	1000
    3.12354 0.00132979 -4.48167e-07 7.067e-11 -4.13301e-15 -1062.91 5.23938 
    3.57049 -0.000590847 1.69281e-06 -2.18867e-10 -3.81885e-13 -1115.26 3.19307 
;
burntProducts 	1	28.3233
    200	6000	1000
    3.10558 0.00179747 -5.94696e-07 9.05605e-11 -5.08443e-15 -11003.6 5.12104 
    3.49796 0.000638555 -1.83881e-07 1.20989e-09 -7.68691e-13 -11080.5 3.18188 
;
products 	1	28.7825
    300	5000	1000
    3.10186 0.00131299 -4.41466e-07 6.95252e-11 -4.06363e-15 -2275.44 5.32571 
    3.57272 -0.000551146 1.43175e-06 6.06716e-11 -4.75155e-13 -2342.21 3.12134 
;
Tad = 638.739

phi = 0.13
ft = 0.00827623
fuel fuel	1	44.0962
    300	5000	1000
    7.53414 0.0188722 -6.27185e-06 9.14756e-10 -4.78381e-14 -16467.5 -17.8923 
    0.933554 0.0264246 6.10597e-06 -2.19775e-08 9.51493e-12 -13958.5 19.2017 
;
oxidant 	1	28.8504
    200	6000	1000
    3.10131 0.00124137 -4.18816e-07 6.64158e-11 -3.91274e-15 -985.266 5.35597 
    3.58378 -0.000727005 1.67057e-06 -1.09203e-10 -4.31765e-13 -1050.53 3.11239 
;
reactants 	1	28.9332
    300	5000	1000
    3.12538 0.00133712 -4.506e-07 7.10226e-11 -4.15127e-15 -1069.34 5.22972 
    3.56938 -0.000579563 1.69465e-06 -2.27956e-10 -3.77751e-13 -1120.62 3.19976 
;
burntProducts 	1	28.3233
    200	6000	1000
    3.10558 0.00179747 -5.94696e-07 9.05605e-11 -5.08443e-15 -11003.6 5.12104 
    3.49796 0.000638555 -1.83881e-07 1.20989e-09 -7.68691e-13 -11080.5 3.18188 
;
products 	1	28.7769
    300	5000	1000
    3.1019 0.00131889 -4.43333e-07 6.97815e-11 -4.07607e-15 -2381.8 5.32322 
    3.57181 -0.000536649 1.41206e-06 7.46749e-11 -4.78732e-13 -2448.69 3.12208 
;
Tad = 665.405

phi = 0.14
ft = 0.0089072
fuel fuel	1	44.0962
    300	5000	1000
    7.53414 0.0188722 -6.27185e-06 9.14756e-10 -4.78381e-14 -16467.5 -17.8923 
    0.933554 0.0264246 6.10597e-06 -2.19775e-08 9.51493e-12 -13958.5 19.2017 
;
oxidant 	1	28.8504
    200	6000	1000
    3.10131 0.00124137 -4.18816e-07 6.64158e-11 -3.91274e-15 -985.266 5.35597 
    3.58378 -0.000727005 1.67057e-06 -1.09203e-10 -4.31765e-13 -1050.53 3.11239 
;
reactants 	1	28.9395
    300	5000	1000
    3.12722 0.00134444 -4.5303e-07 7.13749e-11 -4.16951e-15 -1075.77 5.22006 
    3.56828 -0.000568287 1.6965e-06 -2.37037e-10 -3.73621e-13 -1125.98 3.20644 
;
burntProducts 	1	28.3233
    200	6000	1000
    3.10558 0.00179747 -5.94696e-07 9.05605e-11 -5.08443e-15 -11003.6 5.12104 
    3.49796 0.000638555 -1.83881e-07 1.20989e-09 -7.68691e-13 -11080.5 3.18188 
;
products 	1	28.7713
    300	5000	1000
    3.10195 0.00132479 -4.45197e-07 7.00374e-11 -4.08849e-15 -2487.97 5.32073 
    3.5709 -0.000522177 1.39241e-06 8.86549e-11 -4.82303e-13 -2554.99 3.12281 
;
Tad = 691.814

phi = 0.15
ft = 0.00953736
fuel fuel	1	44.0962
    300	5000	1000
    7.53414 0.0188722 -6.27185e-06 9.14756e-10 -4.78381e-14 -16467.5 -17.8923 
    0.933554 0.0264246 6.10597e-06 -2.19775e-08 9.51493e-12 -13958.5 19.2017 
;
oxidant 	1	28.8504
    200	6000	1000
    3.10131 0.00124137 -4.18816e-07 6.64158e-11 -3.91274e-15 -985.266 5.35597 
    3.58378 -0.000727005 1.67057e-06 -1.09203e-10 -4.31765e-13 -1050.53 3.11239 
;
reactants 	1	28.9458
    300	5000	1000
    3.12906 0.00135175 -4.55459e-07 7.17269e-11 -4.18774e-15 -1082.19 5.21042 
    3.56718 -0.000557021 1.69834e-06 -2.46111e-10 -3.69494e-13 -1131.34 3.21312 
;
burntProducts 	1	28.3233
    200	6000	1000
    3.10558 0.00179747 -5.94696e-07 9.05605e-11 -5.08443e-15 -11003.6 5.12104 
    3.49796 0.000638555 -1.83881e-07 1.20989e-09 -7.68691e-13 -11080.5 3.18188 
;
products 	1	28.7658
    300	5000	1000
    3.10199 0.00133067 -4.47058e-07 7.02929e-11 -4.10089e-15 -2593.97 5.31824 
    3.57 -0.000507728 1.37279e-06 1.02612e-10 -4.85868e-13 -2661.12 3.12355 
;
Tad = 717.969

phi = 0.16
ft = 0.0101667
fuel fuel	1	44.0962
    300	5000	1000
    7.53414 0.0188722 -6.27185e-06 9.14756e-10 -4.78381e-14 -16467.5 -17.8923 
    0.933554 0.0264246 6.10597e-06 -2.19775e-08 9.51493e-12 -13958.5 19.2017 
;
oxidant 	1	28.8504
    200	6000	1000
    3.10131 0.00124137 -4.18816e-07 6.64158e-11 -3.91274e-15 -985.266 5.35597 
    3.58378 -0.000727005 1.67057e-06 -1.09203e-10 -4.31765e-13 -1050.53 3.11239 
;
reactants 	1	28.9522
    300	5000	1000
    3.1309 0.00135906 -4.57886e-07 7.20786e-11 -4.20595e-15 -1088.61 5.20078 
    3.56609 -0.000545764 1.70018e-06 -2.55177e-10 -3.6537e-13 -1136.69 3.21979 
;
burntProducts 	1	28.3233
    200	6000	1000
    3.10558 0.00179747 -5.94696e-07 9.05605e-11 -5.08443e-15 -11003.6 5.12104 
    3.49796 0.000638555 -1.83881e-07 1.20989e-09 -7.68691e-13 -11080.5 3.18188 
;
products 	1	28.7602
    300	5000	1000
    3.10204 0.00133654 -4.48916e-07 7.05479e-11 -4.11326e-15 -2699.8 5.31576 
    3.56909 -0.000493303 1.3532e-06 1.16546e-10 -4.89427e-13 -2767.07 3.12428 
;
Tad = 743.872

phi = 0.17
ft = 0.0107953
fuel fuel	1	44.0962
    300	5000	1000
    7.53414 0.0188722 -6.27185e-06 9.14756e-10 -4.78381e-14 -16467.5 -17.8923 
    0.933554 0.0264246 6.10597e-06 -2.19775e-08 9.51493e-12 -13958.5 19.2017 
;
oxidant 	1	28.8504
    200	6000	1000
    3.10131 0.00124137 -4.18816e-07 6.64158e-11 -3.91274e-15 -985.266 5.35597 
    3.58378 -0.000727005 1.67057e-06 -1.09203e-10 -4.31765e-13 -1050.53 3.11239 
;
reactants 	1	28.9585
    300	5000	1000
    3.13273 0.00136637 -4.6031e-07 7.243e-11 -4.22414e-15 -1095.03 5.19115 
    3.56499 -0.000534517 1.70201e-06 -2.64236e-10 -3.6125e-13 -1142.04 3.22645 
;
burntProducts 	1	28.3233
    200	6000	1000
    3.10558 0.00179747 -5.94696e-07 9.05605e-11 -5.08443e-15 -11003.6 5.12104 
    3.49796 0.000638555 -1.83881e-07 1.20989e-09 -7.68691e-13 -11080.5 3.18188 
;
products 	1	28.7546
    300	5000	1000
    3.10209 0.00134241 -4.50771e-07 7.08026e-11 -4.12562e-15 -2805.45 5.31328 
    3.56819 -0.000478903 1.33364e-06 1.30456e-10 -4.9298e-13 -2872.84 3.12501 
;
Tad = 769.527

phi = 0.18
ft = 0.011423
fuel fuel	1	44.0962
    300	5000	1000
    7.53414 0.0188722 -6.27185e-06 9.14756e-10 -4.78381e-14 -16467.5 -17.8923 
    0.933554 0.0264246 6.10597e-06 -2.19775e-08 9.51493e-12 -13958.5 19.2017 
;
oxidant 	1	28.8504
    200	6000	1000
    3.10131 0.00124137 -4.18816e-07 6.64158e-11 -3.91274e-15 -985.266 5.35597 
    3.58378 -0.000727005 1.67057e-06 -1.09203e-10 -4.31765e-13 -1050.53 3.11239 
;
reactants 	1	28.9648
    300	5000	1000
    3.13457 0.00137366 -4.62733e-07 7.27812e-11 -4.24232e-15 -1101.43 5.18153 
    3.56389 -0.000523279 1.70385e-06 -2.73287e-10 -3.57133e-13 -1147.38 3.23311 
;
burntProducts 	1	28.3233
    200	6000	1000
    3.10558 0.00179747 -5.94696e-07 9.05605e-11 -5.08443e-15 -11003.6 5.12104 
    3.49796 0.000638555 -1.83881e-07 1.20989e-09 -7.68691e-13 -11080.5 3.18188 
;
products 	1	28.7491
    300	5000	1000
    3.10213 0.00134826 -4.52622e-07 7.10568e-11 -4.13796e-15 -2910.92 5.31081 
    3.56728 -0.000464526 1.31412e-06 1.44344e-10 -4.96527e-13 -2978.44 3.12575 
;
Tad = 794.939

phi = 0.19
ft = 0.01205
fuel fuel	1	44.0962
    300	5000	1000
    7.53414 0.0188722 -6.27185e-06 9.14756e-10 -4.78381e-14 -16467.5 -17.8923 
    0.933554 0.0264246 6.10597e-06 -2.19775e-08 9.51493e-12 -13958.5 19.2017 
;
oxidant 	1	28.8504
    200	6000	1000
    3.10131 0.00124137 -4.18816e-07 6.64158e-11 -3.91274e-15 -985.266 5.35597 
    3.58378 -0.000727005 1.67057e-06 -1.09203e-10 -4.31765e-13 -1050.53 3.11239 
;
reactants 	1	28.9711
    300	5000	1000
    3.1364 0.00138096 -4.65153e-07 7.3132e-11 -4.26049e-15 -1107.84 5.17191 
    3.5628 -0.000512051 1.70568e-06 -2.82331e-10 -3.53019e-13 -1152.72 3.23976 
;
burntProducts 	1	28.3233
    200	6000	1000
    3.10558 0.00179747 -5.94696e-07 9.05605e-11 -5.08443e-15 -11003.6 5.12104 
    3.49796 0.000638555 -1.83881e-07 1.20989e-09 -7.68691e-13 -11080.5 3.18188 
;
products 	1	28.7435
    300	5000	1000
    3.10218 0.00135411 -4.54471e-07 7.13105e-11 -4.15027e-15 -3016.22 5.30834 
    3.56638 -0.000450173 1.29463e-06 1.58209e-10 -5.00069e-13 -3083.86 3.12648 
;
Tad = 820.113

phi = 0.2
ft = 0.0126762
fuel fuel	1	44.0962
    300	5000	1000
    7.53414 0.0188722 -6.27185e-06 9.14756e-10 -4.78381e-14 -16467.5 -17.8923 
    0.933554 0.0264246 6.10597e-06 -2.19775e-08 9.51493e-12 -13958.5 19.2017 
;
oxidant 	1	28.8504
    200	6000	1000
    3.10131 0.00124137 -4.18816e-07 6.64158e-11 -3.91274e-15 -985.266 5.35597 
    3.58378 -0.000727005 1.67057e-06 -1.09203e-10 -4.31765e-13 -1050.53 3.11239 
;
reactants 	1	28.9774
    300	5000	1000
    3.13823 0.00138824 -4.67572e-07 7.34825e-11 -4.27864e-15 -1114.23 5.16231 
    3.5617 -0.000500832 1.70752e-06 -2.91367e-10 -3.48909e-13 -1158.05 3.24641 
;
burntProducts 	1	28.3233
    200	6000	1000
    3.10558 0.00179747 -5.94696e-07 9.05605e-11 -5.08443e-15 -11003.6 5.12104 
    3.49796 0.000638555 -1.83881e-07 1.20989e-09 -7.68691e-13 -11080.5 3.18188 
;
products 	1	28.738
    300	5000	1000
    3.10222 0.00135994 -4.56317e-07 7.15639e-11 -4.16257e-15 -3121.35 5.30588 
    3.56548 -0.000435843 1.27517e-06 1.7205e-10 -5.03604e-13 -3189.11 3.12721 
;
Tad = 845.055

phi = 0.21
ft = 0.0133016
fuel fuel	1	44.0962
    300	5000	1000
    7.53414 0.0188722 -6.27185e-06 9.14756e-10 -4.78381e-14 -16467.5 -17.8923 
    0.933554 0.0264246 6.10597e-06 -2.19775e-08 9.51493e-12 -13958.5 19.2017 
;
oxidant 	1	28.8504
    200	6000	1000
    3.10131 0.00124137 -4.18816e-07 6.64158e-11 -3.91274e-15 -985.266 5.35597 
    3.58378 -0.000727005 1.67057e-06 -1.09203e-10 -4.31765e-13 -1050.53 3.11239 
;
reactants 	1	28.9837
    300	5000	1000
    3.14006 0.00139552 -4.69988e-07 7.38328e-11 -4.29678e-15 -1120.63 5.15271 
    3.56061 -0.000489622 1.70935e-06 -3.00395e-10 -3.44803e-13 -1163.38 3.25306 
;
burntProducts 	1	28.3233
    200	6000	1000
    3.10558 0.00179747 -5.94696e-07 9.05605e-11 -5.08443e-15 -11003.6 5.12104 
    3.49796 0.000638555 -1.83881e-07 1.20989e-09 -7.68691e-13 -11080.5 3.18188 
;
products 	1	28.7325
    300	5000	1000
    3.10226 0.00136577 -4.58159e-07 7.18169e-11 -4.17484e-15 -3226.3 5.30341 
    3.56458 -0.000421537 1.25574e-06 1.85869e-10 -5.07134e-13 -3294.19 3.12793 
;
Tad = 869.772

phi = 0.22
ft = 0.0139261
fuel fuel	1	44.0962
    300	5000	1000
    7.53414 0.0188722 -6.27185e-06 9.14756e-10 -4.78381e-14 -16467.5 -17.8923 
    0.933554 0.0264246 6.10597e-06 -2.19775e-08 9.51493e-12 -13958.5 19.2017 
;
oxidant 	1	28.8504
    200	6000	1000
    3.10131 0.00124137 -4.18816e-07 6.64158e-11 -3.91274e-15 -985.266 5.35597 
    3.58378 -0.000727005 1.67057e-06 -1.09203e-10 -4.31765e-13 -1050.53 3.11239 
;
reactants 	1	28.99
    300	5000	1000
    3.14189 0.00140279 -4.72403e-07 7.41827e-11 -4.3149e-15 -1127.01 5.14312 
    3.55951 -0.000478421 1.71118e-06 -3.09416e-10 -3.40699e-13 -1168.71 3.25969 
;
burntProducts 	1	28.3233
    200	6000	1000
    3.10558 0.00179747 -5.94696e-07 9.05605e-11 -5.08443e-15 -11003.6 5.12104 
    3.49796 0.000638555 -1.83881e-07 1.20989e-09 -7.68691e-13 -11080.5 3.18188 
;
products 	1	28.727
    300	5000	1000
    3.10231 0.00137159 -4.59999e-07 7.20694e-11 -4.1871e-15 -3331.08 5.30096 
    3.56368 -0.000407255 1.23634e-06 1.99665e-10 -5.10658e-13 -3399.09 3.12866 
;
Tad = 894.27

phi = 0.23
ft = 0.0145499
fuel fuel	1	44.0962
    300	5000	1000
    7.53414 0.0188722 -6.27185e-06 9.14756e-10 -4.78381e-14 -16467.5 -17.8923 
    0.933554 0.0264246 6.10597e-06 -2.19775e-08 9.51493e-12 -13958.5 19.2017 
;
oxidant 	1	28.8504
    200	6000	1000
    3.10131 0.00124137 -4.18816e-07 6.64158e-11 -3.91274e-15 -985.266 5.35597 
    3.58378 -0.000727005 1.67057e-06 -1.09203e-10 -4.31765e-13 -1050.53 3.11239 
;
reactants 	1	28.9963
    300	5000	1000
    3.14372 0.00141006 -4.74815e-07 7.45324e-11 -4.333e-15 -1133.39 5.13354 
    3.55842 -0.00046723 1.713e-06 -3.1843e-10 -3.366e-13 -1174.03 3.26632 
;
burntProducts 	1	28.3233
    200	6000	1000
    3.10558 0.00179747 -5.94696e-07 9.05605e-11 -5.08443e-15 -11003.6 5.12104 
    3.49796 0.000638555 -1.83881e-07 1.20989e-09 -7.68691e-13 -11080.5 3.18188 
;
products 	1	28.7215
    300	5000	1000
    3.10235 0.00137739 -4.61835e-07 7.23215e-11 -4.19933e-15 -3435.69 5.2985 
    3.56279 -0.000392997 1.21698e-06 2.13439e-10 -5.14176e-13 -3503.82 3.12939 
;
Tad = 918.557

phi = 0.24
ft = 0.0151729
fuel fuel	1	44.0962
    300	5000	1000
    7.53414 0.0188722 -6.27185e-06 9.14756e-10 -4.78381e-14 -16467.5 -17.8923 
    0.933554 0.0264246 6.10597e-06 -2.19775e-08 9.51493e-12 -13958.5 19.2017 
;
oxidant 	1	28.8504
    200	6000	1000
    3.10131 0.00124137 -4.18816e-07 6.64158e-11 -3.91274e-15 -985.266 5.35597 
    3.58378 -0.000727005 1.67057e-06 -1.09203e-10 -4.31765e-13 -1050.53 3.11239 
;
reactants 	1	29.0025
    300	5000	1000
    3.14555 0.00141732 -4.77226e-07 7.48818e-11 -4.35109e-15 -1139.77 5.12396 
    3.55733 -0.000456048 1.71483e-06 -3.27436e-10 -3.32503e-13 -1179.34 3.27295 
;
burntProducts 	1	28.3233
    200	6000	1000
    3.10558 0.00179747 -5.94696e-07 9.05605e-11 -5.08443e-15 -11003.6 5.12104 
    3.49796 0.000638555 -1.83881e-07 1.20989e-09 -7.68691e-13 -11080.5 3.18188 
;
products 	1	28.716
    300	5000	1000
    3.1024 0.00138319 -4.63669e-07 7.25732e-11 -4.21154e-15 -3540.12 5.29606 
    3.56189 -0.000378762 1.19765e-06 2.27189e-10 -5.17688e-13 -3608.37 3.13011 
;
Tad = 942.642

phi = 0.25
ft = 0.0157952
fuel fuel	1	44.0962
    300	5000	1000
    7.53414 0.0188722 -6.27185e-06 9.14756e-10 -4.78381e-14 -16467.5 -17.8923 
    0.933554 0.0264246 6.10597e-06 -2.19775e-08 9.51493e-12 -13958.5 19.2017 
;
oxidant 	1	28.8504
    200	6000	1000
    3.10131 0.00124137 -4.18816e-07 6.64158e-11 -3.91274e-15 -985.266 5.35597 
    3.58378 -0.000727005 1.67057e-06 -1.09203e-10 -4.31765e-13 -1050.53 3.11239 
;
reactants 	1	29.0088
    300	5000	1000
    3.14737 0.00142458 -4.79634e-07 7.52308e-11 -4.36916e-15 -1146.14 5.11439 
    3.55624 -0.000444876 1.71666e-06 -3.36434e-10 -3.2841e-13 -1184.66 3.27957 
;
burntProducts 	1	28.3233
    200	6000	1000
    3.10558 0.00179747 -5.94696e-07 9.05605e-11 -5.08443e-15 -11003.6 5.12104 
    3.49796 0.000638555 -1.83881e-07 1.20989e-09 -7.68691e-13 -11080.5 3.18188 
;
products 	1	28.7105
    300	5000	1000
    3.10244 0.00138898 -4.65499e-07 7.28245e-11 -4.22374e-15 -3644.39 5.29361 
    3.561 -0.00036455 1.17835e-06 2.40917e-10 -5.21194e-13 -3712.76 3.13083 
;
Tad = 966.532

phi = 0.26
ft = 0.0164166
fuel fuel	1	44.0962
    300	5000	1000
    7.53414 0.0188722 -6.27185e-06 9.14756e-10 -4.78381e-14 -16467.5 -17.8923 
    0.933554 0.0264246 6.10597e-06 -2.19775e-08 9.51493e-12 -13958.5 19.2017 
;
oxidant 	1	28.8504
    200	6000	1000
    3.10131 0.00124137 -4.18816e-07 6.64158e-11 -3.91274e-15 -985.266 5.35597 
    3.58378 -0.000727005 1.67057e-06 -1.09203e-10 -4.31765e-13 -1050.53 3.11239 
;
reactants 	1	29.0151
    300	5000	1000
    3.14919 0.00143182 -4.8204e-07 7.55796e-11 -4.38722e-15 -1152.51 5.10484 
    3.55515 -0.000433713 1.71848e-06 -3.45426e-10 -3.24321e-13 -1189.96 3.28619 
;
burntProducts 	1	28.3233
    200	6000	1000
    3.10558 0.00179747 -5.94696e-07 9.05605e-11 -5.08443e-15 -11003.6 5.12104 
    3.49796 0.000638555 -1.83881e-07 1.20989e-09 -7.68691e-13 -11080.5 3.18188 
;
products 	1	28.705
    300	5000	1000
    3.10249 0.00139475 -4.67326e-07 7.30753e-11 -4.23591e-15 -3748.48 5.29117 
    3.56011 -0.000350362 1.15908e-06 2.54623e-10 -5.24695e-13 -3816.97 3.13156 
;
Tad = 990.237

phi = 0.27
ft = 0.0170372
fuel fuel	1	44.0962
    300	5000	1000
    7.53414 0.0188722 -6.27185e-06 9.14756e-10 -4.78381e-14 -16467.5 -17.8923 
    0.933554 0.0264246 6.10597e-06 -2.19775e-08 9.51493e-12 -13958.5 19.2017 
;
oxidant 	1	28.8504
    200	6000	1000
    3.10131 0.00124137 -4.18816e-07 6.64158e-11 -3.91274e-15 -985.266 5.35597 
    3.58378 -0.000727005 1.67057e-06 -1.09203e-10 -4.31765e-13 -1050.53 3.11239 
;
reactants 	1	29.0213
    300	5000	1000
    3.15101 0.00143907 -4.84445e-07 7.59281e-11 -4.40527e-15 -1158.87 5.09529 
    3.55406 -0.000422559 1.7203e-06 -3.54409e-10 -3.20235e-13 -1195.26 3.2928 
;
burntProducts 	1	28.3233
    200	6000	1000
    3.10558 0.00179747 -5.94696e-07 9.05605e-11 -5.08443e-15 -11003.6 5.12104 
    3.49796 0.000638555 -1.83881e-07 1.20989e-09 -7.68691e-13 -11080.5 3.18188 
;
products 	1	28.6995
    300	5000	1000
    3.10253 0.00140052 -4.69151e-07 7.33258e-11 -4.24807e-15 -3852.4 5.28873 
    3.55922 -0.000336196 1.13985e-06 2.68306e-10 -5.2819e-13 -3921.01 3.13228 
;
Tad = 1013.76

phi = 0.28
ft = 0.0176571
fuel fuel	1	44.0962
    300	5000	1000
    7.53414 0.0188722 -6.27185e-06 9.14756e-10 -4.78381e-14 -16467.5 -17.8923 
    0.933554 0.0264246 6.10597e-06 -2.19775e-08 9.51493e-12 -13958.5 19.2017 
;
oxidant 	1	28.8504
    200	6000	1000
    3.10131 0.00124137 -4.18816e-07 6.64158e-11 -3.91274e-15 -985.266 5.35597 
    3.58378 -0.000727005 1.67057e-06 -1.09203e-10 -4.31765e-13 -1050.53 3.11239 
;
reactants 	1	29.0276
    300	5000	1000
    3.15283 0.0014463 -4.86847e-07 7.62763e-11 -4.4233e-15 -1165.22 5.08574 
    3.55297 -0.000411414 1.72212e-06 -3.63385e-10 -3.16152e-13 -1200.56 3.2994 
;
burntProducts 	1	28.3233
    200	6000	1000
    3.10558 0.00179747 -5.94696e-07 9.05605e-11 -5.08443e-15 -11003.6 5.12104 
    3.49796 0.000638555 -1.83881e-07 1.20989e-09 -7.68691e-13 -11080.5 3.18188 
;
products 	1	28.6941
    300	5000	1000
    3.10258 0.00140628 -4.70972e-07 7.35758e-11 -4.2602e-15 -3956.15 5.2863 
    3.55833 -0.000322055 1.12064e-06 2.81966e-10 -5.31679e-13 -4024.88 3.133 
;
Tad = 1037.12

phi = 0.29
ft = 0.0182762
fuel fuel	1	44.0962
    300	5000	1000
    7.53414 0.0188722 -6.27185e-06 9.14756e-10 -4.78381e-14 -16467.5 -17.8923 
    0.933554 0.0264246 6.10597e-06 -2.19775e-08 9.51493e-12 -13958.5 19.2017 
;
oxidant 	1	28.8504
    200	6000	1000
    3.10131 0.00124137 -4.18816e-07 6.64158e-11 -3.91274e-15 -985.266 5.35597 
    3.58378 -0.000727005 1.67057e-06 -1.09203e-10 -4.31765e-13 -1050.53 3.11239 
;
reactants 	1	29.0339
    300	5000	1000
    3.15465 0.00145353 -4.89248e-07 7.66243e-11 -4.44131e-15 -1171.57 5.07621 
    3.55189 -0.000400278 1.72394e-06 -3.72354e-10 -3.12073e-13 -1205.86 3.306 
;
burntProducts 	1	28.3233
    200	6000	1000
    3.10558 0.00179747 -5.94696e-07 9.05605e-11 -5.08443e-15 -11003.6 5.12104 
    3.49796 0.000638555 -1.83881e-07 1.20989e-09 -7.68691e-13 -11080.5 3.18188 
;
products 	1	28.6886
    300	5000	1000
    3.10262 0.00141203 -4.72791e-07 7.38255e-11 -4.27231e-15 -4059.73 5.28387 
    3.55744 -0.000307936 1.10147e-06 2.95605e-10 -5.35163e-13 -4128.59 3.13371 
;
Tad = 1060.3

phi = 0.3
ft = 0.0188945
fuel fuel	1	44.0962
    300	5000	1000
    7.53414 0.0188722 -6.27185e-06 9.14756e-10 -4.78381e-14 -16467.5 -17.8923 
    0.933554 0.0264246 6.10597e-06 -2.19775e-08 9.51493e-12 -13958.5 19.2017 
;
oxidant 	1	28.8504
    200	6000	1000
    3.10131 0.00124137 -4.18816e-07 6.64158e-11 -3.91274e-15 -985.266 5.35597 
    3.58378 -0.000727005 1.67057e-06 -1.09203e-10 -4.31765e-13 -1050.53 3.11239 
;
reactants 	1	29.0401
    300	5000	1000
    3.15647 0.00146076 -4.91646e-07 7.69719e-11 -4.45931e-15 -1177.91 5.06668 
    3.5508 -0.000389152 1.72576e-06 -3.81315e-10 -3.07997e-13 -1211.15 3.31259 
;
burntProducts 	1	28.3233
    200	6000	1000
    3.10558 0.00179747 -5.94696e-07 9.05605e-11 -5.08443e-15 -11003.6 5.12104 
    3.49796 0.000638555 -1.83881e-07 1.20989e-09 -7.68691e-13 -11080.5 3.18188 
;
products 	1	28.6832
    300	5000	1000
    3.10266 0.00141777 -4.74606e-07 7.40747e-11 -4.28441e-15 -4163.14 5.28145 
    3.55656 -0.000293841 1.08233e-06 3.0922e-10 -5.3864e-13 -4232.12 3.13443 
;
Tad = 1083.31

phi = 0.31
ft = 0.019512
fuel fuel	1	44.0962
    300	5000	1000
    7.53414 0.0188722 -6.27185e-06 9.14756e-10 -4.78381e-14 -16467.5 -17.8923 
    0.933554 0.0264246 6.10597e-06 -2.19775e-08 9.51493e-12 -13958.5 19.2017 
;
oxidant 	1	28.8504
    200	6000	1000
    3.10131 0.00124137 -4.18816e-07 6.64158e-11 -3.91274e-15 -985.266 5.35597 
    3.58378 -0.000727005 1.67057e-06 -1.09203e-10 -4.31765e-13 -1050.53 3.11239 
;
reactants 	1	29.0463
    300	5000	1000
    3.15828 0.00146798 -4.94043e-07 7.73193e-11 -4.4773e-15 -1184.25 5.05716 
    3.54971 -0.000378035 1.72758e-06 -3.90269e-10 -3.03924e-13 -1216.43 3.31918 
;
burntProducts 	1	28.3233
    200	6000	1000
    3.10558 0.00179747 -5.94696e-07 9.05605e-11 -5.08443e-15 -11003.6 5.12104 
    3.49796 0.000638555 -1.83881e-07 1.20989e-09 -7.68691e-13 -11080.5 3.18188 
;
products 	1	28.6778
    300	5000	1000
    3.10271 0.0014235 -4.76419e-07 7.43235e-11 -4.29648e-15 -4266.38 5.27903 
    3.55567 -0.000279768 1.06321e-06 3.22814e-10 -5.42113e-13 -4335.48 3.13515 
;
Tad = 1106.15

phi = 0.32
ft = 0.0201288
fuel fuel	1	44.0962
    300	5000	1000
    7.53414 0.0188722 -6.27185e-06 9.14756e-10 -4.78381e-14 -16467.5 -17.8923 
    0.933554 0.0264246 6.10597e-06 -2.19775e-08 9.51493e-12 -13958.5 19.2017 
;
oxidant 	1	28.8504
    200	6000	1000
    3.10131 0.00124137 -4.18816e-07 6.64158e-11 -3.91274e-15 -985.266 5.35597 
    3.58378 -0.000727005 1.67057e-06 -1.09203e-10 -4.31765e-13 -1050.53 3.11239 
;
reactants 	1	29.0526
    300	5000	1000
    3.1601 0.00147519 -4.96437e-07 7.76663e-11 -4.49527e-15 -1190.59 5.04765 
    3.54863 -0.000366927 1.72939e-06 -3.99215e-10 -2.99855e-13 -1221.71 3.32576 
;
burntProducts 	1	28.3233
    200	6000	1000
    3.10558 0.00179747 -5.94696e-07 9.05605e-11 -5.08443e-15 -11003.6 5.12104 
    3.49796 0.000638555 -1.83881e-07 1.20989e-09 -7.68691e-13 -11080.5 3.18188 
;
products 	1	28.6723
    300	5000	1000
    3.10275 0.00142922 -4.78228e-07 7.45719e-11 -4.30854e-15 -4369.45 5.27661 
    3.55479 -0.000265719 1.04414e-06 3.36385e-10 -5.45579e-13 -4438.67 3.13586 
;
Tad = 1128.84

phi = 0.33
ft = 0.0207448
fuel fuel	1	44.0962
    300	5000	1000
    7.53414 0.0188722 -6.27185e-06 9.14756e-10 -4.78381e-14 -16467.5 -17.8923 
    0.933554 0.0264246 6.10597e-06 -2.19775e-08 9.51493e-12 -13958.5 19.2017 
;
oxidant 	1	28.8504
    200	6000	1000
    3.10131 0.00124137 -4.18816e-07 6.64158e-11 -3.91274e-15 -985.266 5.35597 
    3.58378 -0.000727005 1.67057e-06 -1.09203e-10 -4.31765e-13 -1050.53 3.11239 
;
reactants 	1	29.0588
    300	5000	1000
    3.16191 0.0014824 -4.9883e-07 7.80131e-11 -4.51322e-15 -1196.92 5.03815 
    3.54755 -0.000355829 1.7312e-06 -4.08154e-10 -2.95789e-13 -1226.99 3.33234 
;
burntProducts 	1	28.3233
    200	6000	1000
    3.10558 0.00179747 -5.94696e-07 9.05605e-11 -5.08443e-15 -11003.6 5.12104 
    3.49796 0.000638555 -1.83881e-07 1.20989e-09 -7.68691e-13 -11080.5 3.18188 
;
products 	1	28.6669
    300	5000	1000
    3.1028 0.00143494 -4.80035e-07 7.48199e-11 -4.32057e-15 -4472.35 5.2742 
    3.55391 -0.000251693 1.02509e-06 3.49934e-10 -5.4904e-13 -4541.69 3.13658 
;
Tad = 1151.36

phi = 0.34
ft = 0.02136
fuel fuel	1	44.0962
    300	5000	1000
    7.53414 0.0188722 -6.27185e-06 9.14756e-10 -4.78381e-14 -16467.5 -17.8923 
    0.933554 0.0264246 6.10597e-06 -2.19775e-08 9.51493e-12 -13958.5 19.2017 
;
oxidant 	1	28.8504
    200	6000	1000
    3.10131 0.00124137 -4.18816e-07 6.64158e-11 -3.91274e-15 -985.266 5.35597 
    3.58378 -0.000727005 1.67057e-06 -1.09203e-10 -4.31765e-13 -1050.53 3.11239 
;
reactants 	1	29.065
    300	5000	1000
    3.16372 0.0014896 -5.0122e-07 7.83596e-11 -4.53116e-15 -1203.24 5.02865 
    3.54646 -0.000344739 1.73301e-06 -4.17086e-10 -2.91726e-13 -1232.26 3.33891 
;
burntProducts 	1	28.3233
    200	6000	1000
    3.10558 0.00179747 -5.94696e-07 9.05605e-11 -5.08443e-15 -11003.6 5.12104 
    3.49796 0.000638555 -1.83881e-07 1.20989e-09 -7.68691e-13 -11080.5 3.18188 
;
products 	1	28.6615
    300	5000	1000
    3.10284 0.00144064 -4.81838e-07 7.50675e-11 -4.33259e-15 -4575.09 5.27179 
    3.55303 -0.000237689 1.00607e-06 3.63461e-10 -5.52495e-13 -4644.55 3.13729 
;
Tad = 1173.73

phi = 0.35
ft = 0.0219744
fuel fuel	1	44.0962
    300	5000	1000
    7.53414 0.0188722 -6.27185e-06 9.14756e-10 -4.78381e-14 -16467.5 -17.8923 
    0.933554 0.0264246 6.10597e-06 -2.19775e-08 9.51493e-12 -13958.5 19.2017 
;
oxidant 	1	28.8504
    200	6000	1000
    3.10131 0.00124137 -4.18816e-07 6.64158e-11 -3.91274e-15 -985.266 5.35597 
    3.58378 -0.000727005 1.67057e-06 -1.09203e-10 -4.31765e-13 -1050.53 3.11239 
;
reactants 	1	29.0713
    300	5000	1000
    3.16553 0.00149679 -5.03609e-07 7.87058e-11 -4.54909e-15 -1209.56 5.01917 
    3.54538 -0.000333659 1.73482e-06 -4.2601e-10 -2.87667e-13 -1237.53 3.34548 
;
burntProducts 	1	28.3233
    200	6000	1000
    3.10558 0.00179747 -5.94696e-07 9.05605e-11 -5.08443e-15 -11003.6 5.12104 
    3.49796 0.000638555 -1.83881e-07 1.20989e-09 -7.68691e-13 -11080.5 3.18188 
;
products 	1	28.6561
    300	5000	1000
    3.10288 0.00144633 -4.83639e-07 7.53147e-11 -4.34458e-15 -4677.66 5.26938 
    3.55215 -0.000223708 9.87085e-07 3.76966e-10 -5.55944e-13 -4747.24 3.138 
;
Tad = 1195.94

phi = 0.36
ft = 0.0225881
fuel fuel	1	44.0962
    300	5000	1000
    7.53414 0.0188722 -6.27185e-06 9.14756e-10 -4.78381e-14 -16467.5 -17.8923 
    0.933554 0.0264246 6.10597e-06 -2.19775e-08 9.51493e-12 -13958.5 19.2017 
;
oxidant 	1	28.8504
    200	6000	1000
    3.10131 0.00124137 -4.18816e-07 6.64158e-11 -3.91274e-15 -985.266 5.35597 
    3.58378 -0.000727005 1.67057e-06 -1.09203e-10 -4.31765e-13 -1050.53 3.11239 
;
reactants 	1	29.0775
    300	5000	1000
    3.16733 0.00150398 -5.05995e-07 7.90517e-11 -4.567e-15 -1215.87 5.00969 
    3.5443 -0.000322588 1.73663e-06 -4.34927e-10 -2.83612e-13 -1242.79 3.35204 
;
burntProducts 	1	28.3233
    200	6000	1000
    3.10558 0.00179747 -5.94696e-07 9.05605e-11 -5.08443e-15 -11003.6 5.12104 
    3.49796 0.000638555 -1.83881e-07 1.20989e-09 -7.68691e-13 -11080.5 3.18188 
;
products 	1	28.6507
    300	5000	1000
    3.10293 0.00145202 -4.85437e-07 7.55615e-11 -4.35656e-15 -4780.06 5.26698 
    3.55127 -0.000209751 9.6813e-07 3.90449e-10 -5.59388e-13 -4849.76 3.13871 
;
Tad = 1218

phi = 0.37
ft = 0.0232009
fuel fuel	1	44.0962
    300	5000	1000
    7.53414 0.0188722 -6.27185e-06 9.14756e-10 -4.78381e-14 -16467.5 -17.8923 
    0.933554 0.0264246 6.10597e-06 -2.19775e-08 9.51493e-12 -13958.5 19.2017 
;
oxidant 	1	28.8504
    200	6000	1000
    3.10131 0.00124137 -4.18816e-07 6.64158e-11 -3.91274e-15 -985.266 5.35597 
    3.58378 -0.000727005 1.67057e-06 -1.09203e-10 -4.31765e-13 -1050.53 3.11239 
;
reactants 	1	29.0837
    300	5000	1000
    3.16914 0.00151117 -5.0838e-07 7.93973e-11 -4.5849e-15 -1222.18 5.00021 
    3.54322 -0.000311526 1.73844e-06 -4.43836e-10 -2.79559e-13 -1248.05 3.35859 
;
burntProducts 	1	28.3233
    200	6000	1000
    3.10558 0.00179747 -5.94696e-07 9.05605e-11 -5.08443e-15 -11003.6 5.12104 
    3.49796 0.000638555 -1.83881e-07 1.20989e-09 -7.68691e-13 -11080.5 3.18188 
;
products 	1	28.6454
    300	5000	1000
    3.10297 0.00145769 -4.87232e-07 7.58079e-11 -4.36852e-15 -4882.29 5.26458 
    3.5504 -0.000195816 9.49206e-07 4.0391e-10 -5.62826e-13 -4952.11 3.13942 
;
Tad = 1239.92

phi = 0.38
ft = 0.0238131
fuel fuel	1	44.0962
    300	5000	1000
    7.53414 0.0188722 -6.27185e-06 9.14756e-10 -4.78381e-14 -16467.5 -17.8923 
    0.933554 0.0264246 6.10597e-06 -2.19775e-08 9.51493e-12 -13958.5 19.2017 
;
oxidant 	1	28.8504
    200	6000	1000
    3.10131 0.00124137 -4.18816e-07 6.64158e-11 -3.91274e-15 -985.266 5.35597 
    3.58378 -0.000727005 1.67057e-06 -1.09203e-10 -4.31765e-13 -1050.53 3.11239 
;
reactants 	1	29.0899
    300	5000	1000
    3.17095 0.00151834 -5.10763e-07 7.97426e-11 -4.60278e-15 -1228.48 4.99075 
    3.54214 -0.000300473 1.74025e-06 -4.52738e-10 -2.7551e-13 -1253.3 3.36514 
;
burntProducts 	1	28.3233
    200	6000	1000
    3.10558 0.00179747 -5.94696e-07 9.05605e-11 -5.08443e-15 -11003.6 5.12104 
    3.49796 0.000638555 -1.83881e-07 1.20989e-09 -7.68691e-13 -11080.5 3.18188 
;
products 	1	28.64
    300	5000	1000
    3.10301 0.00146336 -4.89023e-07 7.60539e-11 -4.38045e-15 -4984.36 5.26219 
    3.54952 -0.000181903 9.30313e-07 4.17349e-10 -5.66259e-13 -5054.3 3.14013 
;
Tad = 1261.68

phi = 0.39
ft = 0.0244244
fuel fuel	1	44.0962
    300	5000	1000
    7.53414 0.0188722 -6.27185e-06 9.14756e-10 -4.78381e-14 -16467.5 -17.8923 
    0.933554 0.0264246 6.10597e-06 -2.19775e-08 9.51493e-12 -13958.5 19.2017 
;
oxidant 	1	28.8504
    200	6000	1000
    3.10131 0.00124137 -4.18816e-07 6.64158e-11 -3.91274e-15 -985.266 5.35597 
    3.58378 -0.000727005 1.67057e-06 -1.09203e-10 -4.31765e-13 -1050.53 3.11239 
;
reactants 	1	29.0961
    300	5000	1000
    3.17275 0.00152551 -5.13143e-07 8.00877e-11 -4.62064e-15 -1234.78 4.9813 
    3.54107 -0.00028943 1.74205e-06 -4.61633e-10 -2.71464e-13 -1258.55 3.37168 
;
burntProducts 	1	28.3233
    200	6000	1000
    3.10558 0.00179747 -5.94696e-07 9.05605e-11 -5.08443e-15 -11003.6 5.12104 
    3.49796 0.000638555 -1.83881e-07 1.20989e-09 -7.68691e-13 -11080.5 3.18188 
;
products 	1	28.6346
    300	5000	1000
    3.10306 0.00146901 -4.90812e-07 7.62995e-11 -4.39237e-15 -5086.26 5.2598 
    3.54865 -0.000168013 9.1145e-07 4.30766e-10 -5.69686e-13 -5156.32 3.14083 
;
Tad = 1283.3

phi = 0.4
ft = 0.025035
fuel fuel	1	44.0962
    300	5000	1000
    7.53414 0.0188722 -6.27185e-06 9.14756e-10 -4.78381e-14 -16467.5 -17.8923 
    0.933554 0.0264246 6.10597e-06 -2.19775e-08 9.51493e-12 -13958.5 19.2017 
;
oxidant 	1	28.8504
    200	6000	1000
    3.10131 0.00124137 -4.18816e-07 6.64158e-11 -3.91274e-15 -985.266 5.35597 
    3.58378 -0.000727005 1.67057e-06 -1.09203e-10 -4.31765e-13 -1050.53 3.11239 
;
reactants 	1	29.1023
    300	5000	1000
    3.17455 0.00153268 -5.15522e-07 8.04325e-11 -4.63849e-15 -1241.07 4.97185 
    3.53999 -0.000278395 1.74385e-06 -4.70521e-10 -2.67422e-13 -1263.8 3.37822 
;
burntProducts 	1	28.3233
    200	6000	1000
    3.10558 0.00179747 -5.94696e-07 9.05605e-11 -5.08443e-15 -11003.6 5.12104 
    3.49796 0.000638555 -1.83881e-07 1.20989e-09 -7.68691e-13 -11080.5 3.18188 
;
products 	1	28.6293
    300	5000	1000
    3.1031 0.00147466 -4.92598e-07 7.65446e-11 -4.40427e-15 -5187.99 5.25741 
    3.54778 -0.000154146 8.92618e-07 4.44161e-10 -5.73107e-13 -5258.17 3.14154 
;
Tad = 1304.78

phi = 0.41
ft = 0.0256448
fuel fuel	1	44.0962
    300	5000	1000
    7.53414 0.0188722 -6.27185e-06 9.14756e-10 -4.78381e-14 -16467.5 -17.8923 
    0.933554 0.0264246 6.10597e-06 -2.19775e-08 9.51493e-12 -13958.5 19.2017 
;
oxidant 	1	28.8504
    200	6000	1000
    3.10131 0.00124137 -4.18816e-07 6.64158e-11 -3.91274e-15 -985.266 5.35597 
    3.58378 -0.000727005 1.67057e-06 -1.09203e-10 -4.31765e-13 -1050.53 3.11239 
;
reactants 	1	29.1085
    300	5000	1000
    3.17635 0.00153984 -5.17899e-07 8.0777e-11 -4.65633e-15 -1247.36 4.96241 
    3.53891 -0.00026737 1.74565e-06 -4.79401e-10 -2.63383e-13 -1269.04 3.38476 
;
burntProducts 	1	28.3233
    200	6000	1000
    3.10558 0.00179747 -5.94696e-07 9.05605e-11 -5.08443e-15 -11003.6 5.12104 
    3.49796 0.000638555 -1.83881e-07 1.20989e-09 -7.68691e-13 -11080.5 3.18188 
;
products 	1	28.6239
    300	5000	1000
    3.10314 0.0014803 -4.94382e-07 7.67894e-11 -4.41615e-15 -5289.56 5.25503 
    3.54691 -0.000140302 8.73817e-07 4.57534e-10 -5.76523e-13 -5359.86 3.14224 
;
Tad = 1326.12

phi = 0.42
ft = 0.0262539
fuel fuel	1	44.0962
    300	5000	1000
    7.53414 0.0188722 -6.27185e-06 9.14756e-10 -4.78381e-14 -16467.5 -17.8923 
    0.933554 0.0264246 6.10597e-06 -2.19775e-08 9.51493e-12 -13958.5 19.2017 
;
oxidant 	1	28.8504
    200	6000	1000
    3.10131 0.00124137 -4.18816e-07 6.64158e-11 -3.91274e-15 -985.266 5.35597 
    3.58378 -0.000727005 1.67057e-06 -1.09203e-10 -4.31765e-13 -1050.53 3.11239 
;
reactants 	1	29.1147
    300	5000	1000
    3.17815 0.00154699 -5.20274e-07 8.11212e-11 -4.67415e-15 -1253.64 4.95297 
    3.53784 -0.000256354 1.74745e-06 -4.88273e-10 -2.59347e-13 -1274.28 3.39128 
;
burntProducts 	1	28.3233
    200	6000	1000
    3.10558 0.00179747 -5.94696e-07 9.05605e-11 -5.08443e-15 -11003.6 5.12104 
    3.49796 0.000638555 -1.83881e-07 1.20989e-09 -7.68691e-13 -11080.5 3.18188 
;
products 	1	28.6186
    300	5000	1000
    3.10319 0.00148593 -4.96162e-07 7.70338e-11 -4.42801e-15 -5390.97 5.25265 
    3.54604 -0.000126479 8.55046e-07 4.70886e-10 -5.79934e-13 -5461.38 3.14295 
;
Tad = 1347.32

phi = 0.43
ft = 0.0268622
fuel fuel	1	44.0962
    300	5000	1000
    7.53414 0.0188722 -6.27185e-06 9.14756e-10 -4.78381e-14 -16467.5 -17.8923 
    0.933554 0.0264246 6.10597e-06 -2.19775e-08 9.51493e-12 -13958.5 19.2017 
;
oxidant 	1	28.8504
    200	6000	1000
    3.10131 0.00124137 -4.18816e-07 6.64158e-11 -3.91274e-15 -985.266 5.35597 
    3.58378 -0.000727005 1.67057e-06 -1.09203e-10 -4.31765e-13 -1050.53 3.11239 
;
reactants 	1	29.1209
    300	5000	1000
    3.17995 0.00155414 -5.22646e-07 8.14651e-11 -4.69196e-15 -1259.92 4.94355 
    3.53676 -0.000245346 1.74925e-06 -4.97139e-10 -2.55315e-13 -1279.51 3.39781 
;
burntProducts 	1	28.3233
    200	6000	1000
    3.10558 0.00179747 -5.94696e-07 9.05605e-11 -5.08443e-15 -11003.6 5.12104 
    3.49796 0.000638555 -1.83881e-07 1.20989e-09 -7.68691e-13 -11080.5 3.18188 
;
products 	1	28.6133
    300	5000	1000
    3.10323 0.00149155 -4.97939e-07 7.72778e-11 -4.43985e-15 -5492.21 5.25028 
    3.54517 -0.00011268 8.36306e-07 4.84216e-10 -5.83338e-13 -5562.74 3.14365 
;
Tad = 1368.38

phi = 0.44
ft = 0.0274697
fuel fuel	1	44.0962
    300	5000	1000
    7.53414 0.0188722 -6.27185e-06 9.14756e-10 -4.78381e-14 -16467.5 -17.8923 
    0.933554 0.0264246 6.10597e-06 -2.19775e-08 9.51493e-12 -13958.5 19.2017 
;
oxidant 	1	28.8504
    200	6000	1000
    3.10131 0.00124137 -4.18816e-07 6.64158e-11 -3.91274e-15 -985.266 5.35597 
    3.58378 -0.000727005 1.67057e-06 -1.09203e-10 -4.31765e-13 -1050.53 3.11239 
;
reactants 	1	29.127
    300	5000	1000
    3.18174 0.00156128 -5.25017e-07 8.18087e-11 -4.70975e-15 -1266.19 4.93413 
    3.53569 -0.000234348 1.75105e-06 -5.05997e-10 -2.51286e-13 -1284.74 3.40432 
;
burntProducts 	1	28.3233
    200	6000	1000
    3.10558 0.00179747 -5.94696e-07 9.05605e-11 -5.08443e-15 -11003.6 5.12104 
    3.49796 0.000638555 -1.83881e-07 1.20989e-09 -7.68691e-13 -11080.5 3.18188 
;
products 	1	28.608
    300	5000	1000
    3.10327 0.00149716 -4.99714e-07 7.75214e-11 -4.45167e-15 -5593.29 5.24791 
    3.5443 -9.89022e-05 8.17596e-07 4.97525e-10 -5.86738e-13 -5663.94 3.14435 
;
Tad = 1389.32

phi = 0.45
ft = 0.0280765
fuel fuel	1	44.0962
    300	5000	1000
    7.53414 0.0188722 -6.27185e-06 9.14756e-10 -4.78381e-14 -16467.5 -17.8923 
    0.933554 0.0264246 6.10597e-06 -2.19775e-08 9.51493e-12 -13958.5 19.2017 
;
oxidant 	1	28.8504
    200	6000	1000
    3.10131 0.00124137 -4.18816e-07 6.64158e-11 -3.91274e-15 -985.266 5.35597 
    3.58378 -0.000727005 1.67057e-06 -1.09203e-10 -4.31765e-13 -1050.53 3.11239 
;
reactants 	1	29.1332
    300	5000	1000
    3.18354 0.00156842 -5.27386e-07 8.2152e-11 -4.72753e-15 -1272.45 4.92472 
    3.53462 -0.000223359 1.75284e-06 -5.14847e-10 -2.4726e-13 -1289.97 3.41084 
;
burntProducts 	1	28.3233
    200	6000	1000
    3.10558 0.00179747 -5.94696e-07 9.05605e-11 -5.08443e-15 -11003.6 5.12104 
    3.49796 0.000638555 -1.83881e-07 1.20989e-09 -7.68691e-13 -11080.5 3.18188 
;
products 	1	28.6026
    300	5000	1000
    3.10332 0.00150276 -5.01485e-07 7.77646e-11 -4.46347e-15 -5694.2 5.24554 
    3.54344 -8.5147e-05 7.98916e-07 5.10812e-10 -5.90132e-13 -5764.97 3.14505 
;
Tad = 1410.12

phi = 0.46
ft = 0.0286825
fuel fuel	1	44.0962
    300	5000	1000
    7.53414 0.0188722 -6.27185e-06 9.14756e-10 -4.78381e-14 -16467.5 -17.8923 
    0.933554 0.0264246 6.10597e-06 -2.19775e-08 9.51493e-12 -13958.5 19.2017 
;
oxidant 	1	28.8504
    200	6000	1000
    3.10131 0.00124137 -4.18816e-07 6.64158e-11 -3.91274e-15 -985.266 5.35597 
    3.58378 -0.000727005 1.67057e-06 -1.09203e-10 -4.31765e-13 -1050.53 3.11239 
;
reactants 	1	29.1394
    300	5000	1000
    3.18533 0.00157555 -5.29753e-07 8.24951e-11 -4.74529e-15 -1278.71 4.91532 
    3.53354 -0.000212379 1.75464e-06 -5.23691e-10 -2.43238e-13 -1295.19 3.41734 
;
burntProducts 	1	28.3233
    200	6000	1000
    3.10558 0.00179747 -5.94696e-07 9.05605e-11 -5.08443e-15 -11003.6 5.12104 
    3.49796 0.000638555 -1.83881e-07 1.20989e-09 -7.68691e-13 -11080.5 3.18188 
;
products 	1	28.5973
    300	5000	1000
    3.10336 0.00150835 -5.03254e-07 7.80074e-11 -4.47526e-15 -5794.95 5.24318 
    3.54258 -7.14142e-05 7.80267e-07 5.24078e-10 -5.9352e-13 -5865.84 3.14575 
;
Tad = 1430.79

phi = 0.47
ft = 0.0292878
fuel fuel	1	44.0962
    300	5000	1000
    7.53414 0.0188722 -6.27185e-06 9.14756e-10 -4.78381e-14 -16467.5 -17.8923 
    0.933554 0.0264246 6.10597e-06 -2.19775e-08 9.51493e-12 -13958.5 19.2017 
;
oxidant 	1	28.8504
    200	6000	1000
    3.10131 0.00124137 -4.18816e-07 6.64158e-11 -3.91274e-15 -985.266 5.35597 
    3.58378 -0.000727005 1.67057e-06 -1.09203e-10 -4.31765e-13 -1050.53 3.11239 
;
reactants 	1	29.1455
    300	5000	1000
    3.18712 0.00158267 -5.32118e-07 8.28379e-11 -4.76304e-15 -1284.97 4.90593 
    3.53247 -0.000201408 1.75643e-06 -5.32527e-10 -2.39219e-13 -1300.4 3.42384 
;
burntProducts 	1	28.3233
    200	6000	1000
    3.10558 0.00179747 -5.94696e-07 9.05605e-11 -5.08443e-15 -11003.6 5.12104 
    3.49796 0.000638555 -1.83881e-07 1.20989e-09 -7.68691e-13 -11080.5 3.18188 
;
products 	1	28.592
    300	5000	1000
    3.1034 0.00151393 -5.0502e-07 7.82499e-11 -4.48702e-15 -5895.54 5.24082 
    3.54172 -5.77035e-05 7.61648e-07 5.37322e-10 -5.96903e-13 -5966.54 3.14645 
;
Tad = 1451.33

phi = 0.48
ft = 0.0298923
fuel fuel	1	44.0962
    300	5000	1000
    7.53414 0.0188722 -6.27185e-06 9.14756e-10 -4.78381e-14 -16467.5 -17.8923 
    0.933554 0.0264246 6.10597e-06 -2.19775e-08 9.51493e-12 -13958.5 19.2017 
;
oxidant 	1	28.8504
    200	6000	1000
    3.10131 0.00124137 -4.18816e-07 6.64158e-11 -3.91274e-15 -985.266 5.35597 
    3.58378 -0.000727005 1.67057e-06 -1.09203e-10 -4.31765e-13 -1050.53 3.11239 
;
reactants 	1	29.1517
    300	5000	1000
    3.18891 0.00158979 -5.34481e-07 8.31804e-11 -4.78078e-15 -1291.22 4.89654 
    3.5314 -0.000190446 1.75822e-06 -5.41356e-10 -2.35203e-13 -1305.61 3.43034 
;
burntProducts 	1	28.3233
    200	6000	1000
    3.10558 0.00179747 -5.94696e-07 9.05605e-11 -5.08443e-15 -11003.6 5.12104 
    3.49796 0.000638555 -1.83881e-07 1.20989e-09 -7.68691e-13 -11080.5 3.18188 
;
products 	1	28.5868
    300	5000	1000
    3.10345 0.00151951 -5.06783e-07 7.84919e-11 -4.49877e-15 -5995.96 5.23847 
    3.54086 -4.40149e-05 7.43058e-07 5.50544e-10 -6.0028e-13 -6067.08 3.14714 
;
Tad = 1471.74

phi = 0.49
ft = 0.0304961
fuel fuel	1	44.0962
    300	5000	1000
    7.53414 0.0188722 -6.27185e-06 9.14756e-10 -4.78381e-14 -16467.5 -17.8923 
    0.933554 0.0264246 6.10597e-06 -2.19775e-08 9.51493e-12 -13958.5 19.2017 
;
oxidant 	1	28.8504
    200	6000	1000
    3.10131 0.00124137 -4.18816e-07 6.64158e-11 -3.91274e-15 -985.266 5.35597 
    3.58378 -0.000727005 1.67057e-06 -1.09203e-10 -4.31765e-13 -1050.53 3.11239 
;
reactants 	1	29.1578
    300	5000	1000
    3.1907 0.0015969 -5.36842e-07 8.35226e-11 -4.7985e-15 -1297.47 4.88716 
    3.53033 -0.000179493 1.76001e-06 -5.50178e-10 -2.3119e-13 -1310.82 3.43683 
;
burntProducts 	1	28.3233
    200	6000	1000
    3.10558 0.00179747 -5.94696e-07 9.05605e-11 -5.08443e-15 -11003.6 5.12104 
    3.49796 0.000638555 -1.83881e-07 1.20989e-09 -7.68691e-13 -11080.5 3.18188 
;
products 	1	28.5815
    300	5000	1000
    3.10349 0.00152507 -5.08543e-07 7.87335e-11 -4.51049e-15 -6096.23 5.23612 
    3.54 -3.03485e-05 7.24499e-07 5.63746e-10 -6.03652e-13 -6167.46 3.14784 
;
Tad = 1492.04

phi = 0.5
ft = 0.0310991
fuel fuel	1	44.0962
    300	5000	1000
    7.53414 0.0188722 -6.27185e-06 9.14756e-10 -4.78381e-14 -16467.5 -17.8923 
    0.933554 0.0264246 6.10597e-06 -2.19775e-08 9.51493e-12 -13958.5 19.2017 
;
oxidant 	1	28.8504
    200	6000	1000
    3.10131 0.00124137 -4.18816e-07 6.64158e-11 -3.91274e-15 -985.266 5.35597 
    3.58378 -0.000727005 1.67057e-06 -1.09203e-10 -4.31765e-13 -1050.53 3.11239 
;
reactants 	1	29.164
    300	5000	1000
    3.19248 0.00160401 -5.39201e-07 8.38646e-11 -4.8162e-15 -1303.71 4.87779 
    3.52927 -0.000168549 1.7618e-06 -5.58992e-10 -2.27181e-13 -1316.02 3.44331 
;
burntProducts 	1	28.3233
    200	6000	1000
    3.10558 0.00179747 -5.94696e-07 9.05605e-11 -5.08443e-15 -11003.6 5.12104 
    3.49796 0.000638555 -1.83881e-07 1.20989e-09 -7.68691e-13 -11080.5 3.18188 
;
products 	1	28.5762
    300	5000	1000
    3.10353 0.00153063 -5.10301e-07 7.89748e-11 -4.5222e-15 -6196.33 5.23377 
    3.53914 -1.67041e-05 7.0597e-07 5.76926e-10 -6.07019e-13 -6267.68 3.14853 
;
Tad = 1512.21

phi = 0.51
ft = 0.0317014
fuel fuel	1	44.0962
    300	5000	1000
    7.53414 0.0188722 -6.27185e-06 9.14756e-10 -4.78381e-14 -16467.5 -17.8923 
    0.933554 0.0264246 6.10597e-06 -2.19775e-08 9.51493e-12 -13958.5 19.2017 
;
oxidant 	1	28.8504
    200	6000	1000
    3.10131 0.00124137 -4.18816e-07 6.64158e-11 -3.91274e-15 -985.266 5.35597 
    3.58378 -0.000727005 1.67057e-06 -1.09203e-10 -4.31765e-13 -1050.53 3.11239 
;
reactants 	1	29.1701
    300	5000	1000
    3.19427 0.00161111 -5.41559e-07 8.42062e-11 -4.83389e-15 -1309.94 4.86843 
    3.5282 -0.000157615 1.76358e-06 -5.67799e-10 -2.23175e-13 -1321.22 3.44979 
;
burntProducts 	1	28.3233
    200	6000	1000
    3.10558 0.00179747 -5.94696e-07 9.05605e-11 -5.08443e-15 -11003.6 5.12104 
    3.49796 0.000638555 -1.83881e-07 1.20989e-09 -7.68691e-13 -11080.5 3.18188 
;
products 	1	28.571
    300	5000	1000
    3.10357 0.00153618 -5.12055e-07 7.92156e-11 -4.53389e-15 -6296.27 5.23143 
    3.53828 -3.08164e-06 6.8747e-07 5.90085e-10 -6.1038e-13 -6367.74 3.14923 
;
Tad = 1532.26

phi = 0.52
ft = 0.0323029
fuel fuel	1	44.0962
    300	5000	1000
    7.53414 0.0188722 -6.27185e-06 9.14756e-10 -4.78381e-14 -16467.5 -17.8923 
    0.933554 0.0264246 6.10597e-06 -2.19775e-08 9.51493e-12 -13958.5 19.2017 
;
oxidant 	1	28.8504
    200	6000	1000
    3.10131 0.00124137 -4.18816e-07 6.64158e-11 -3.91274e-15 -985.266 5.35597 
    3.58378 -0.000727005 1.67057e-06 -1.09203e-10 -4.31765e-13 -1050.53 3.11239 
;
reactants 	1	29.1762
    300	5000	1000
    3.19605 0.0016182 -5.43914e-07 8.45476e-11 -4.85157e-15 -1316.17 4.85907 
    3.52713 -0.000146689 1.76537e-06 -5.76599e-10 -2.19173e-13 -1326.41 3.45627 
;
burntProducts 	1	28.3233
    200	6000	1000
    3.10558 0.00179747 -5.94696e-07 9.05605e-11 -5.08443e-15 -11003.6 5.12104 
    3.49796 0.000638555 -1.83881e-07 1.20989e-09 -7.68691e-13 -11080.5 3.18188 
;
products 	1	28.5657
    300	5000	1000
    3.10362 0.00154172 -5.13807e-07 7.94561e-11 -4.54556e-15 -6396.05 5.22909 
    3.53743 1.05189e-05 6.69001e-07 6.03222e-10 -6.13735e-13 -6467.63 3.14992 
;
Tad = 1552.19

phi = 0.53
ft = 0.0329037
fuel fuel	1	44.0962
    300	5000	1000
    7.53414 0.0188722 -6.27185e-06 9.14756e-10 -4.78381e-14 -16467.5 -17.8923 
    0.933554 0.0264246 6.10597e-06 -2.19775e-08 9.51493e-12 -13958.5 19.2017 
;
oxidant 	1	28.8504
    200	6000	1000
    3.10131 0.00124137 -4.18816e-07 6.64158e-11 -3.91274e-15 -985.266 5.35597 
    3.58378 -0.000727005 1.67057e-06 -1.09203e-10 -4.31765e-13 -1050.53 3.11239 
;
reactants 	1	29.1824
    300	5000	1000
    3.19783 0.00162529 -5.46267e-07 8.48887e-11 -4.86923e-15 -1322.4 4.84973 
    3.52607 -0.000135772 1.76715e-06 -5.85392e-10 -2.15173e-13 -1331.6 3.46274 
;
burntProducts 	1	28.3233
    200	6000	1000
    3.10558 0.00179747 -5.94696e-07 9.05605e-11 -5.08443e-15 -11003.6 5.12104 
    3.49796 0.000638555 -1.83881e-07 1.20989e-09 -7.68691e-13 -11080.5 3.18188 
;
products 	1	28.5605
    300	5000	1000
    3.10366 0.00154724 -5.15556e-07 7.96962e-11 -4.55721e-15 -6495.66 5.22675 
    3.53658 2.40975e-05 6.50561e-07 6.16339e-10 -6.17086e-13 -6567.37 3.15061 
;
Tad = 1572

phi = 0.54
ft = 0.0335037
fuel fuel	1	44.0962
    300	5000	1000
    7.53414 0.0188722 -6.27185e-06 9.14756e-10 -4.78381e-14 -16467.5 -17.8923 
    0.933554 0.0264246 6.10597e-06 -2.19775e-08 9.51493e-12 -13958.5 19.2017 
;
oxidant 	1	28.8504
    200	6000	1000
    3.10131 0.00124137 -4.18816e-07 6.64158e-11 -3.91274e-15 -985.266 5.35597 
    3.58378 -0.000727005 1.67057e-06 -1.09203e-10 -4.31765e-13 -1050.53 3.11239 
;
reactants 	1	29.1885
    300	5000	1000
    3.19962 0.00163238 -5.48619e-07 8.52295e-11 -4.88687e-15 -1328.62 4.84039 
    3.525 -0.000124864 1.76893e-06 -5.94177e-10 -2.11177e-13 -1336.79 3.4692 
;
burntProducts 	1	28.3233
    200	6000	1000
    3.10558 0.00179747 -5.94696e-07 9.05605e-11 -5.08443e-15 -11003.6 5.12104 
    3.49796 0.000638555 -1.83881e-07 1.20989e-09 -7.68691e-13 -11080.5 3.18188 
;
products 	1	28.5552
    300	5000	1000
    3.1037 0.00155277 -5.17302e-07 7.99359e-11 -4.56884e-15 -6595.12 5.22442 
    3.53572 3.76543e-05 6.3215e-07 6.29434e-10 -6.2043e-13 -6666.94 3.1513 
;
Tad = 1591.7

phi = 0.55
ft = 0.034103
fuel fuel	1	44.0962
    300	5000	1000
    7.53414 0.0188722 -6.27185e-06 9.14756e-10 -4.78381e-14 -16467.5 -17.8923 
    0.933554 0.0264246 6.10597e-06 -2.19775e-08 9.51493e-12 -13958.5 19.2017 
;
oxidant 	1	28.8504
    200	6000	1000
    3.10131 0.00124137 -4.18816e-07 6.64158e-11 -3.91274e-15 -985.266 5.35597 
    3.58378 -0.000727005 1.67057e-06 -1.09203e-10 -4.31765e-13 -1050.53 3.11239 
;
reactants 	1	29.1946
    300	5000	1000
    3.2014 0.00163945 -5.50968e-07 8.557e-11 -4.90451e-15 -1334.83 4.83105 
    3.52394 -0.000113965 1.77071e-06 -6.02955e-10 -2.07185e-13 -1341.97 3.47566 
;
burntProducts 	1	28.3233
    200	6000	1000
    3.10558 0.00179747 -5.94696e-07 9.05605e-11 -5.08443e-15 -11003.6 5.12104 
    3.49796 0.000638555 -1.83881e-07 1.20989e-09 -7.68691e-13 -11080.5 3.18188 
;
products 	1	28.55
    300	5000	1000
    3.10374 0.00155828 -5.19045e-07 8.01752e-11 -4.58046e-15 -6694.42 5.22209 
    3.53487 5.11894e-05 6.1377e-07 6.42509e-10 -6.2377e-13 -6766.36 3.15199 
;
Tad = 1611.28

phi = 0.56
ft = 0.0347015
fuel fuel	1	44.0962
    300	5000	1000
    7.53414 0.0188722 -6.27185e-06 9.14756e-10 -4.78381e-14 -16467.5 -17.8923 
    0.933554 0.0264246 6.10597e-06 -2.19775e-08 9.51493e-12 -13958.5 19.2017 
;
oxidant 	1	28.8504
    200	6000	1000
    3.10131 0.00124137 -4.18816e-07 6.64158e-11 -3.91274e-15 -985.266 5.35597 
    3.58378 -0.000727005 1.67057e-06 -1.09203e-10 -4.31765e-13 -1050.53 3.11239 
;
reactants 	1	29.2007
    300	5000	1000
    3.20317 0.00164652 -5.53316e-07 8.59103e-11 -4.92212e-15 -1341.04 4.82173 
    3.52288 -0.000103075 1.77249e-06 -6.11726e-10 -2.03195e-13 -1347.15 3.48211 
;
burntProducts 	1	28.3233
    200	6000	1000
    3.10558 0.00179747 -5.94696e-07 9.05605e-11 -5.08443e-15 -11003.6 5.12104 
    3.49796 0.000638555 -1.83881e-07 1.20989e-09 -7.68691e-13 -11080.5 3.18188 
;
products 	1	28.5448
    300	5000	1000
    3.10379 0.00156378 -5.20786e-07 8.04141e-11 -4.59205e-15 -6793.56 5.21977 
    3.53402 6.47027e-05 5.95418e-07 6.55562e-10 -6.27104e-13 -6865.61 3.15268 
;
Tad = 1630.75

phi = 0.57
ft = 0.0352993
fuel fuel	1	44.0962
    300	5000	1000
    7.53414 0.0188722 -6.27185e-06 9.14756e-10 -4.78381e-14 -16467.5 -17.8923 
    0.933554 0.0264246 6.10597e-06 -2.19775e-08 9.51493e-12 -13958.5 19.2017 
;
oxidant 	1	28.8504
    200	6000	1000
    3.10131 0.00124137 -4.18816e-07 6.64158e-11 -3.91274e-15 -985.266 5.35597 
    3.58378 -0.000727005 1.67057e-06 -1.09203e-10 -4.31765e-13 -1050.53 3.11239 
;
reactants 	1	29.2068
    300	5000	1000
    3.20495 0.00165359 -5.55661e-07 8.62503e-11 -4.93973e-15 -1347.25 4.81241 
    3.52181 -9.21936e-05 1.77427e-06 -6.2049e-10 -1.99209e-13 -1352.32 3.48856 
;
burntProducts 	1	28.3233
    200	6000	1000
    3.10558 0.00179747 -5.94696e-07 9.05605e-11 -5.08443e-15 -11003.6 5.12104 
    3.49796 0.000638555 -1.83881e-07 1.20989e-09 -7.68691e-13 -11080.5 3.18188 
;
products 	1	28.5396
    300	5000	1000
    3.10383 0.00156927 -5.22523e-07 8.06527e-11 -4.60363e-15 -6892.54 5.21744 
    3.53318 7.81943e-05 5.77097e-07 6.68595e-10 -6.30433e-13 -6964.71 3.15336 
;
Tad = 1650.1

phi = 0.58
ft = 0.0358964
fuel fuel	1	44.0962
    300	5000	1000
    7.53414 0.0188722 -6.27185e-06 9.14756e-10 -4.78381e-14 -16467.5 -17.8923 
    0.933554 0.0264246 6.10597e-06 -2.19775e-08 9.51493e-12 -13958.5 19.2017 
;
oxidant 	1	28.8504
    200	6000	1000
    3.10131 0.00124137 -4.18816e-07 6.64158e-11 -3.91274e-15 -985.266 5.35597 
    3.58378 -0.000727005 1.67057e-06 -1.09203e-10 -4.31765e-13 -1050.53 3.11239 
;
reactants 	1	29.213
    300	5000	1000
    3.20672 0.00166065 -5.58005e-07 8.659e-11 -4.95732e-15 -1353.44 4.8031 
    3.52075 -8.13214e-05 1.77605e-06 -6.29247e-10 -1.95226e-13 -1357.49 3.495 
;
burntProducts 	1	28.3233
    200	6000	1000
    3.10558 0.00179747 -5.94696e-07 9.05605e-11 -5.08443e-15 -11003.6 5.12104 
    3.49796 0.000638555 -1.83881e-07 1.20989e-09 -7.68691e-13 -11080.5 3.18188 
;
products 	1	28.5344
    300	5000	1000
    3.10387 0.00157476 -5.24258e-07 8.08909e-11 -4.61518e-15 -6991.36 5.21513 
    3.53233 9.16644e-05 5.58804e-07 6.81607e-10 -6.33756e-13 -7063.64 3.15405 
;
Tad = 1669.35

phi = 0.59
ft = 0.0364927
fuel fuel	1	44.0962
    300	5000	1000
    7.53414 0.0188722 -6.27185e-06 9.14756e-10 -4.78381e-14 -16467.5 -17.8923 
    0.933554 0.0264246 6.10597e-06 -2.19775e-08 9.51493e-12 -13958.5 19.2017 
;
oxidant 	1	28.8504
    200	6000	1000
    3.10131 0.00124137 -4.18816e-07 6.64158e-11 -3.91274e-15 -985.266 5.35597 
    3.58378 -0.000727005 1.67057e-06 -1.09203e-10 -4.31765e-13 -1050.53 3.11239 
;
reactants 	1	29.2191
    300	5000	1000
    3.2085 0.0016677 -5.60347e-07 8.69294e-11 -4.97489e-15 -1359.64 4.7938 
    3.51969 -7.04581e-05 1.77782e-06 -6.37996e-10 -1.91246e-13 -1362.66 3.50144 
;
burntProducts 	1	28.3233
    200	6000	1000
    3.10558 0.00179747 -5.94696e-07 9.05605e-11 -5.08443e-15 -11003.6 5.12104 
    3.49796 0.000638555 -1.83881e-07 1.20989e-09 -7.68691e-13 -11080.5 3.18188 
;
products 	1	28.5292
    300	5000	1000
    3.10391 0.00158024 -5.2599e-07 8.11286e-11 -4.62672e-15 -7090.03 5.21281 
    3.53148 0.000105113 5.40541e-07 6.94597e-10 -6.37075e-13 -7162.42 3.15473 
;
Tad = 1688.49

phi = 0.6
ft = 0.0370883
fuel fuel	1	44.0962
    300	5000	1000
    7.53414 0.0188722 -6.27185e-06 9.14756e-10 -4.78381e-14 -16467.5 -17.8923 
    0.933554 0.0264246 6.10597e-06 -2.19775e-08 9.51493e-12 -13958.5 19.2017 
;
oxidant 	1	28.8504
    200	6000	1000
    3.10131 0.00124137 -4.18816e-07 6.64158e-11 -3.91274e-15 -985.266 5.35597 
    3.58378 -0.000727005 1.67057e-06 -1.09203e-10 -4.31765e-13 -1050.53 3.11239 
;
reactants 	1	29.2251
    300	5000	1000
    3.21027 0.00167475 -5.62687e-07 8.72685e-11 -4.99245e-15 -1365.83 4.78451 
    3.51863 -5.96038e-05 1.77959e-06 -6.46738e-10 -1.8727e-13 -1367.82 3.50787 
;
burntProducts 	1	28.3233
    200	6000	1000
    3.10558 0.00179747 -5.94696e-07 9.05605e-11 -5.08443e-15 -11003.6 5.12104 
    3.49796 0.000638555 -1.83881e-07 1.20989e-09 -7.68691e-13 -11080.5 3.18188 
;
products 	1	28.524
    300	5000	1000
    3.10395 0.0015857 -5.2772e-07 8.13661e-11 -4.63824e-15 -7188.53 5.2105 
    3.53064 0.00011854 5.22307e-07 7.07567e-10 -6.40387e-13 -7261.04 3.15542 
;
Tad = 1707.52

phi = 0.61
ft = 0.0376831
fuel fuel	1	44.0962
    300	5000	1000
    7.53414 0.0188722 -6.27185e-06 9.14756e-10 -4.78381e-14 -16467.5 -17.8923 
    0.933554 0.0264246 6.10597e-06 -2.19775e-08 9.51493e-12 -13958.5 19.2017 
;
oxidant 	1	28.8504
    200	6000	1000
    3.10131 0.00124137 -4.18816e-07 6.64158e-11 -3.91274e-15 -985.266 5.35597 
    3.58378 -0.000727005 1.67057e-06 -1.09203e-10 -4.31765e-13 -1050.53 3.11239 
;
reactants 	1	29.2312
    300	5000	1000
    3.21204 0.00168179 -5.65025e-07 8.76074e-11 -5.01e-15 -1372.01 4.77522 
    3.51757 -4.87583e-05 1.78137e-06 -6.55474e-10 -1.83297e-13 -1372.97 3.5143 
;
burntProducts 	1	28.3233
    200	6000	1000
    3.10558 0.00179747 -5.94696e-07 9.05605e-11 -5.08443e-15 -11003.6 5.12104 
    3.49796 0.000638555 -1.83881e-07 1.20989e-09 -7.68691e-13 -11080.5 3.18188 
;
products 	1	28.5188
    300	5000	1000
    3.104 0.00159116 -5.29446e-07 8.16031e-11 -4.64975e-15 -7286.88 5.2082 
    3.5298 0.000131945 5.04102e-07 7.20517e-10 -6.43695e-13 -7359.51 3.1561 
;
Tad = 1726.45

phi = 0.62
ft = 0.0382772
fuel fuel	1	44.0962
    300	5000	1000
    7.53414 0.0188722 -6.27185e-06 9.14756e-10 -4.78381e-14 -16467.5 -17.8923 
    0.933554 0.0264246 6.10597e-06 -2.19775e-08 9.51493e-12 -13958.5 19.2017 
;
oxidant 	1	28.8504
    200	6000	1000
    3.10131 0.00124137 -4.18816e-07 6.64158e-11 -3.91274e-15 -985.266 5.35597 
    3.58378 -0.000727005 1.67057e-06 -1.09203e-10 -4.31765e-13 -1050.53 3.11239 
;
reactants 	1	29.2373
    300	5000	1000
    3.21381 0.00168883 -5.67361e-07 8.7946e-11 -5.02753e-15 -1378.19 4.76594 
    3.51652 -3.79216e-05 1.78314e-06 -6.64202e-10 -1.79327e-13 -1378.12 3.52072 
;
burntProducts 	1	28.3233
    200	6000	1000
    3.10558 0.00179747 -5.94696e-07 9.05605e-11 -5.08443e-15 -11003.6 5.12104 
    3.49796 0.000638555 -1.83881e-07 1.20989e-09 -7.68691e-13 -11080.5 3.18188 
;
products 	1	28.5137
    300	5000	1000
    3.10404 0.00159661 -5.3117e-07 8.18397e-11 -4.66123e-15 -7385.07 5.20589 
    3.52896 0.000145329 4.85926e-07 7.33445e-10 -6.46997e-13 -7457.81 3.15678 
;
Tad = 1745.27

phi = 0.63
ft = 0.0388706
fuel fuel	1	44.0962
    300	5000	1000
    7.53414 0.0188722 -6.27185e-06 9.14756e-10 -4.78381e-14 -16467.5 -17.8923 
    0.933554 0.0264246 6.10597e-06 -2.19775e-08 9.51493e-12 -13958.5 19.2017 
;
oxidant 	1	28.8504
    200	6000	1000
    3.10131 0.00124137 -4.18816e-07 6.64158e-11 -3.91274e-15 -985.266 5.35597 
    3.58378 -0.000727005 1.67057e-06 -1.09203e-10 -4.31765e-13 -1050.53 3.11239 
;
reactants 	1	29.2434
    300	5000	1000
    3.21558 0.00169586 -5.69695e-07 8.82843e-11 -5.04504e-15 -1384.37 4.75667 
    3.51546 -2.70939e-05 1.7849e-06 -6.72922e-10 -1.7536e-13 -1383.27 3.52714 
;
burntProducts 	1	28.3233
    200	6000	1000
    3.10558 0.00179747 -5.94696e-07 9.05605e-11 -5.08443e-15 -11003.6 5.12104 
    3.49796 0.000638555 -1.83881e-07 1.20989e-09 -7.68691e-13 -11080.5 3.18188 
;
products 	1	28.5085
    300	5000	1000
    3.10408 0.00160206 -5.32891e-07 8.2076e-11 -4.6727e-15 -7483.11 5.2036 
    3.52812 0.000158692 4.67779e-07 7.46353e-10 -6.50294e-13 -7555.96 3.15746 
;
Tad = 1763.99

phi = 0.64
ft = 0.0394632
fuel fuel	1	44.0962
    300	5000	1000
    7.53414 0.0188722 -6.27185e-06 9.14756e-10 -4.78381e-14 -16467.5 -17.8923 
    0.933554 0.0264246 6.10597e-06 -2.19775e-08 9.51493e-12 -13958.5 19.2017 
;
oxidant 	1	28.8504
    200	6000	1000
    3.10131 0.00124137 -4.18816e-07 6.64158e-11 -3.91274e-15 -985.266 5.35597 
    3.58378 -0.000727005 1.67057e-06 -1.09203e-10 -4.31765e-13 -1050.53 3.11239 
;
reactants 	1	29.2495
    300	5000	1000
    3.21734 0.00170289 -5.72027e-07 8.86223e-11 -5.06255e-15 -1390.54 4.74741 
    3.5144 -1.6275e-05 1.78667e-06 -6.81636e-10 -1.71397e-13 -1388.41 3.53355 
;
burntProducts 	1	28.3233
    200	6000	1000
    3.10558 0.00179747 -5.94696e-07 9.05605e-11 -5.08443e-15 -11003.6 5.12104 
    3.49796 0.000638555 -1.83881e-07 1.20989e-09 -7.68691e-13 -11080.5 3.18188 
;
products 	1	28.5034
    300	5000	1000
    3.10412 0.00160749 -5.34609e-07 8.23119e-11 -4.68414e-15 -7580.98 5.2013 
    3.52728 0.000172034 4.49661e-07 7.59241e-10 -6.53586e-13 -7653.96 3.15814 
;
Tad = 1782.6

phi = 0.65
ft = 0.0400551
fuel fuel	1	44.0962
    300	5000	1000
    7.53414 0.0188722 -6.27185e-06 9.14756e-10 -4.78381e-14 -16467.5 -17.8923 
    0.933554 0.0264246 6.10597e-06 -2.19775e-08 9.51493e-12 -13958.5 19.2017 
;
oxidant 	1	28.8504
    200	6000	1000
    3.10131 0.00124137 -4.18816e-07 6.64158e-11 -3.91274e-15 -985.266 5.35597 
    3.58378 -0.000727005 1.67057e-06 -1.09203e-10 -4.31765e-13 -1050.53 3.11239 
;
reactants 	1	29.2555
    300	5000	1000
    3.21911 0.00170991 -5.74357e-07 8.89601e-11 -5.08004e-15 -1396.7 4.73815 
    3.51335 -5.46497e-06 1.78844e-06 -6.90343e-10 -1.67437e-13 -1393.55 3.53995 
;
burntProducts 	1	28.3233
    200	6000	1000
    3.10558 0.00179747 -5.94696e-07 9.05605e-11 -5.08443e-15 -11003.6 5.12104 
    3.49796 0.000638555 -1.83881e-07 1.20989e-09 -7.68691e-13 -11080.5 3.18188 
;
products 	1	28.4982
    300	5000	1000
    3.10416 0.00161291 -5.36325e-07 8.25474e-11 -4.69557e-15 -7678.71 5.19901 
    3.52644 0.000185354 4.31572e-07 7.72108e-10 -6.56873e-13 -7751.79 3.15882 
;
Tad = 1801.12

phi = 0.66
ft = 0.0406463
fuel fuel	1	44.0962
    300	5000	1000
    7.53414 0.0188722 -6.27185e-06 9.14756e-10 -4.78381e-14 -16467.5 -17.8923 
    0.933554 0.0264246 6.10597e-06 -2.19775e-08 9.51493e-12 -13958.5 19.2017 
;
oxidant 	1	28.8504
    200	6000	1000
    3.10131 0.00124137 -4.18816e-07 6.64158e-11 -3.91274e-15 -985.266 5.35597 
    3.58378 -0.000727005 1.67057e-06 -1.09203e-10 -4.31765e-13 -1050.53 3.11239 
;
reactants 	1	29.2616
    300	5000	1000
    3.22087 0.00171692 -5.76686e-07 8.92975e-11 -5.09751e-15 -1402.86 4.7289 
    3.51229 5.33624e-06 1.7902e-06 -6.99042e-10 -1.6348e-13 -1398.69 3.54635 
;
burntProducts 	1	28.3233
    200	6000	1000
    3.10558 0.00179747 -5.94696e-07 9.05605e-11 -5.08443e-15 -11003.6 5.12104 
    3.49796 0.000638555 -1.83881e-07 1.20989e-09 -7.68691e-13 -11080.5 3.18188 
;
products 	1	28.4931
    300	5000	1000
    3.1042 0.00161833 -5.38038e-07 8.27825e-11 -4.70698e-15 -7776.27 5.19672 
    3.52561 0.000198653 4.13512e-07 7.84954e-10 -6.60154e-13 -7849.47 3.15949 
;
Tad = 1819.53

phi = 0.67
ft = 0.0412368
fuel fuel	1	44.0962
    300	5000	1000
    7.53414 0.0188722 -6.27185e-06 9.14756e-10 -4.78381e-14 -16467.5 -17.8923 
    0.933554 0.0264246 6.10597e-06 -2.19775e-08 9.51493e-12 -13958.5 19.2017 
;
oxidant 	1	28.8504
    200	6000	1000
    3.10131 0.00124137 -4.18816e-07 6.64158e-11 -3.91274e-15 -985.266 5.35597 
    3.58378 -0.000727005 1.67057e-06 -1.09203e-10 -4.31765e-13 -1050.53 3.11239 
;
reactants 	1	29.2677
    300	5000	1000
    3.22263 0.00172393 -5.79012e-07 8.96347e-11 -5.11497e-15 -1409.01 4.71966 
    3.51124 1.61286e-05 1.79196e-06 -7.07734e-10 -1.59526e-13 -1403.82 3.55275 
;
burntProducts 	1	28.3233
    200	6000	1000
    3.10558 0.00179747 -5.94696e-07 9.05605e-11 -5.08443e-15 -11003.6 5.12104 
    3.49796 0.000638555 -1.83881e-07 1.20989e-09 -7.68691e-13 -11080.5 3.18188 
;
products 	1	28.488
    300	5000	1000
    3.10425 0.00162374 -5.39748e-07 8.30173e-11 -4.71838e-15 -7873.69 5.19444 
    3.52477 0.000211931 3.95481e-07 7.9778e-10 -6.6343e-13 -7947 3.16017 
;
Tad = 1837.85

phi = 0.68
ft = 0.0418265
fuel fuel	1	44.0962
    300	5000	1000
    7.53414 0.0188722 -6.27185e-06 9.14756e-10 -4.78381e-14 -16467.5 -17.8923 
    0.933554 0.0264246 6.10597e-06 -2.19775e-08 9.51493e-12 -13958.5 19.2017 
;
oxidant 	1	28.8504
    200	6000	1000
    3.10131 0.00124137 -4.18816e-07 6.64158e-11 -3.91274e-15 -985.266 5.35597 
    3.58378 -0.000727005 1.67057e-06 -1.09203e-10 -4.31765e-13 -1050.53 3.11239 
;
reactants 	1	29.2737
    300	5000	1000
    3.2244 0.00173093 -5.81337e-07 8.99717e-11 -5.13241e-15 -1415.16 4.71043 
    3.51019 2.69122e-05 1.79373e-06 -7.1642e-10 -1.55576e-13 -1408.95 3.55914 
;
burntProducts 	1	28.3233
    200	6000	1000
    3.10558 0.00179747 -5.94696e-07 9.05605e-11 -5.08443e-15 -11003.6 5.12104 
    3.49796 0.000638555 -1.83881e-07 1.20989e-09 -7.68691e-13 -11080.5 3.18188 
;
products 	1	28.4829
    300	5000	1000
    3.10429 0.00162913 -5.41456e-07 8.32517e-11 -4.72975e-15 -7970.94 5.19216 
    3.52394 0.000225187 3.77478e-07 8.10586e-10 -6.66701e-13 -8044.37 3.16084 
;
Tad = 1856.07

phi = 0.69
ft = 0.0424155
fuel fuel	1	44.0962
    300	5000	1000
    7.53414 0.0188722 -6.27185e-06 9.14756e-10 -4.78381e-14 -16467.5 -17.8923 
    0.933554 0.0264246 6.10597e-06 -2.19775e-08 9.51493e-12 -13958.5 19.2017 
;
oxidant 	1	28.8504
    200	6000	1000
    3.10131 0.00124137 -4.18816e-07 6.64158e-11 -3.91274e-15 -985.266 5.35597 
    3.58378 -0.000727005 1.67057e-06 -1.09203e-10 -4.31765e-13 -1050.53 3.11239 
;
reactants 	1	29.2798
    300	5000	1000
    3.22615 0.00173793 -5.83659e-07 9.03083e-11 -5.14985e-15 -1421.31 4.7012 
    3.50914 3.7687e-05 1.79549e-06 -7.25098e-10 -1.51629e-13 -1414.07 3.56552 
;
burntProducts 	1	28.3233
    200	6000	1000
    3.10558 0.00179747 -5.94696e-07 9.05605e-11 -5.08443e-15 -11003.6 5.12104 
    3.49796 0.000638555 -1.83881e-07 1.20989e-09 -7.68691e-13 -11080.5 3.18188 
;
products 	1	28.4777
    300	5000	1000
    3.10433 0.00163452 -5.4316e-07 8.34857e-11 -4.74111e-15 -8068.04 5.18988 
    3.52311 0.000238423 3.59504e-07 8.23371e-10 -6.69966e-13 -8141.59 3.16152 
;
Tad = 1874.19

phi = 0.7
ft = 0.0430038
fuel fuel	1	44.0962
    300	5000	1000
    7.53414 0.0188722 -6.27185e-06 9.14756e-10 -4.78381e-14 -16467.5 -17.8923 
    0.933554 0.0264246 6.10597e-06 -2.19775e-08 9.51493e-12 -13958.5 19.2017 
;
oxidant 	1	28.8504
    200	6000	1000
    3.10131 0.00124137 -4.18816e-07 6.64158e-11 -3.91274e-15 -985.266 5.35597 
    3.58378 -0.000727005 1.67057e-06 -1.09203e-10 -4.31765e-13 -1050.53 3.11239 
;
reactants 	1	29.2858
    300	5000	1000
    3.22791 0.00174492 -5.8598e-07 9.06447e-11 -5.16726e-15 -1427.44 4.69199 
    3.50809 4.84529e-05 1.79725e-06 -7.33769e-10 -1.47685e-13 -1419.19 3.5719 
;
burntProducts 	1	28.3233
    200	6000	1000
    3.10558 0.00179747 -5.94696e-07 9.05605e-11 -5.08443e-15 -11003.6 5.12104 
    3.49796 0.000638555 -1.83881e-07 1.20989e-09 -7.68691e-13 -11080.5 3.18188 
;
products 	1	28.4726
    300	5000	1000
    3.10437 0.00163991 -5.44862e-07 8.37194e-11 -4.75245e-15 -8164.99 5.18761 
    3.52228 0.000251638 3.41558e-07 8.36136e-10 -6.73227e-13 -8238.65 3.16219 
;
Tad = 1892.22

phi = 0.71
ft = 0.0435914
fuel fuel	1	44.0962
    300	5000	1000
    7.53414 0.0188722 -6.27185e-06 9.14756e-10 -4.78381e-14 -16467.5 -17.8923 
    0.933554 0.0264246 6.10597e-06 -2.19775e-08 9.51493e-12 -13958.5 19.2017 
;
oxidant 	1	28.8504
    200	6000	1000
    3.10131 0.00124137 -4.18816e-07 6.64158e-11 -3.91274e-15 -985.266 5.35597 
    3.58378 -0.000727005 1.67057e-06 -1.09203e-10 -4.31765e-13 -1050.53 3.11239 
;
reactants 	1	29.2919
    300	5000	1000
    3.22967 0.0017519 -5.88299e-07 9.09808e-11 -5.18467e-15 -1433.58 4.68278 
    3.50704 5.92101e-05 1.799e-06 -7.42433e-10 -1.43744e-13 -1424.3 3.57828 
;
burntProducts 	1	28.3233
    200	6000	1000
    3.10558 0.00179747 -5.94696e-07 9.05605e-11 -5.08443e-15 -11003.6 5.12104 
    3.49796 0.000638555 -1.83881e-07 1.20989e-09 -7.68691e-13 -11080.5 3.18188 
;
products 	1	28.4676
    300	5000	1000
    3.10441 0.00164528 -5.46562e-07 8.39527e-11 -4.76377e-15 -8261.79 5.18534 
    3.52145 0.000264832 3.23641e-07 8.48881e-10 -6.76482e-13 -8335.56 3.16286 
;
Tad = 1910.15

phi = 0.72
ft = 0.0441782
fuel fuel	1	44.0962
    300	5000	1000
    7.53414 0.0188722 -6.27185e-06 9.14756e-10 -4.78381e-14 -16467.5 -17.8923 
    0.933554 0.0264246 6.10597e-06 -2.19775e-08 9.51493e-12 -13958.5 19.2017 
;
oxidant 	1	28.8504
    200	6000	1000
    3.10131 0.00124137 -4.18816e-07 6.64158e-11 -3.91274e-15 -985.266 5.35597 
    3.58378 -0.000727005 1.67057e-06 -1.09203e-10 -4.31765e-13 -1050.53 3.11239 
;
reactants 	1	29.2979
    300	5000	1000
    3.23142 0.00175888 -5.90616e-07 9.13166e-11 -5.20205e-15 -1439.71 4.67357 
    3.50599 6.99586e-05 1.80076e-06 -7.5109e-10 -1.39806e-13 -1429.41 3.58465 
;
burntProducts 	1	28.3233
    200	6000	1000
    3.10558 0.00179747 -5.94696e-07 9.05605e-11 -5.08443e-15 -11003.6 5.12104 
    3.49796 0.000638555 -1.83881e-07 1.20989e-09 -7.68691e-13 -11080.5 3.18188 
;
products 	1	28.4625
    300	5000	1000
    3.10445 0.00165064 -5.48258e-07 8.41856e-11 -4.77507e-15 -8358.43 5.18307 
    3.52062 0.000278004 3.05752e-07 8.61605e-10 -6.79732e-13 -8432.31 3.16353 
;
Tad = 1927.99

phi = 0.73
ft = 0.0447643
fuel fuel	1	44.0962
    300	5000	1000
    7.53414 0.0188722 -6.27185e-06 9.14756e-10 -4.78381e-14 -16467.5 -17.8923 
    0.933554 0.0264246 6.10597e-06 -2.19775e-08 9.51493e-12 -13958.5 19.2017 
;
oxidant 	1	28.8504
    200	6000	1000
    3.10131 0.00124137 -4.18816e-07 6.64158e-11 -3.91274e-15 -985.266 5.35597 
    3.58378 -0.000727005 1.67057e-06 -1.09203e-10 -4.31765e-13 -1050.53 3.11239 
;
reactants 	1	29.3039
    300	5000	1000
    3.23318 0.00176586 -5.92931e-07 9.16522e-11 -5.21943e-15 -1445.83 4.66438 
    3.50494 8.06982e-05 1.80251e-06 -7.5974e-10 -1.35872e-13 -1434.52 3.59101 
;
burntProducts 	1	28.3233
    200	6000	1000
    3.10558 0.00179747 -5.94696e-07 9.05605e-11 -5.08443e-15 -11003.6 5.12104 
    3.49796 0.000638555 -1.83881e-07 1.20989e-09 -7.68691e-13 -11080.5 3.18188 
;
products 	1	28.4574
    300	5000	1000
    3.10449 0.001656 -5.49952e-07 8.44181e-11 -4.78635e-15 -8454.92 5.18081 
    3.51979 0.000291156 2.87891e-07 8.7431e-10 -6.82977e-13 -8528.91 3.1642 
;
Tad = 1945.74

phi = 0.74
ft = 0.0453497
fuel fuel	1	44.0962
    300	5000	1000
    7.53414 0.0188722 -6.27185e-06 9.14756e-10 -4.78381e-14 -16467.5 -17.8923 
    0.933554 0.0264246 6.10597e-06 -2.19775e-08 9.51493e-12 -13958.5 19.2017 
;
oxidant 	1	28.8504
    200	6000	1000
    3.10131 0.00124137 -4.18816e-07 6.64158e-11 -3.91274e-15 -985.266 5.35597 
    3.58378 -0.000727005 1.67057e-06 -1.09203e-10 -4.31765e-13 -1050.53 3.11239 
;
reactants 	1	29.31
    300	5000	1000
    3.23493 0.00177282 -5.95245e-07 9.19875e-11 -5.23679e-15 -1451.95 4.65519 
    3.50389 9.14291e-05 1.80427e-06 -7.68383e-10 -1.31941e-13 -1439.62 3.59737 
;
burntProducts 	1	28.3233
    200	6000	1000
    3.10558 0.00179747 -5.94696e-07 9.05605e-11 -5.08443e-15 -11003.6 5.12104 
    3.49796 0.000638555 -1.83881e-07 1.20989e-09 -7.68691e-13 -11080.5 3.18188 
;
products 	1	28.4523
    300	5000	1000
    3.10454 0.00166135 -5.51643e-07 8.46503e-11 -4.79762e-15 -8551.25 5.17855 
    3.51897 0.000304288 2.70059e-07 8.86994e-10 -6.86217e-13 -8625.36 3.16487 
;
Tad = 1963.4

phi = 0.75
ft = 0.0459344
fuel fuel	1	44.0962
    300	5000	1000
    7.53414 0.0188722 -6.27185e-06 9.14756e-10 -4.78381e-14 -16467.5 -17.8923 
    0.933554 0.0264246 6.10597e-06 -2.19775e-08 9.51493e-12 -13958.5 19.2017 
;
oxidant 	1	28.8504
    200	6000	1000
    3.10131 0.00124137 -4.18816e-07 6.64158e-11 -3.91274e-15 -985.266 5.35597 
    3.58378 -0.000727005 1.67057e-06 -1.09203e-10 -4.31765e-13 -1050.53 3.11239 
;
reactants 	1	29.316
    300	5000	1000
    3.23668 0.00177979 -5.97556e-07 9.23225e-11 -5.25414e-15 -1458.06 4.64601 
    3.50284 0.000102151 1.80602e-06 -7.77018e-10 -1.28013e-13 -1444.71 3.60372 
;
burntProducts 	1	28.3233
    200	6000	1000
    3.10558 0.00179747 -5.94696e-07 9.05605e-11 -5.08443e-15 -11003.6 5.12104 
    3.49796 0.000638555 -1.83881e-07 1.20989e-09 -7.68691e-13 -11080.5 3.18188 
;
products 	1	28.4473
    300	5000	1000
    3.10458 0.00166668 -5.53332e-07 8.48821e-11 -4.80887e-15 -8647.44 5.17629 
    3.51814 0.000317398 2.52255e-07 8.99658e-10 -6.89452e-13 -8721.65 3.16554 
;
Tad = 1980.96

phi = 0.76
ft = 0.0465184
fuel fuel	1	44.0962
    300	5000	1000
    7.53414 0.0188722 -6.27185e-06 9.14756e-10 -4.78381e-14 -16467.5 -17.8923 
    0.933554 0.0264246 6.10597e-06 -2.19775e-08 9.51493e-12 -13958.5 19.2017 
;
oxidant 	1	28.8504
    200	6000	1000
    3.10131 0.00124137 -4.18816e-07 6.64158e-11 -3.91274e-15 -985.266 5.35597 
    3.58378 -0.000727005 1.67057e-06 -1.09203e-10 -4.31765e-13 -1050.53 3.11239 
;
reactants 	1	29.322
    300	5000	1000
    3.23843 0.00178674 -5.99865e-07 9.26572e-11 -5.27147e-15 -1464.17 4.63683 
    3.5018 0.000112865 1.80777e-06 -7.85647e-10 -1.24088e-13 -1449.81 3.61007 
;
burntProducts 	1	28.3233
    200	6000	1000
    3.10558 0.00179747 -5.94696e-07 9.05605e-11 -5.08443e-15 -11003.6 5.12104 
    3.49796 0.000638555 -1.83881e-07 1.20989e-09 -7.68691e-13 -11080.5 3.18188 
;
products 	1	28.4422
    300	5000	1000
    3.10462 0.00167202 -5.55018e-07 8.51135e-11 -4.8201e-15 -8743.47 5.17404 
    3.51732 0.000330488 2.34479e-07 9.12303e-10 -6.92682e-13 -8817.8 3.1662 
;
Tad = 1998.44

phi = 0.77
ft = 0.0471016
fuel fuel	1	44.0962
    300	5000	1000
    7.53414 0.0188722 -6.27185e-06 9.14756e-10 -4.78381e-14 -16467.5 -17.8923 
    0.933554 0.0264246 6.10597e-06 -2.19775e-08 9.51493e-12 -13958.5 19.2017 
;
oxidant 	1	28.8504
    200	6000	1000
[...]
    3.10558 0.00179747 -5.94696e-07 9.05605e-11 -5.08443e-15 -11003.6 5.12104 
    3.49796 0.000638555 -1.83881e-07 1.20989e-09 -7.68691e-13 -11080.5 3.18188 
;
products 	1	29.3569
    300	5000	1000
    3.3958 0.00291644 -9.66739e-07 1.44573e-10 -7.88622e-15 -11361.6 3.6129 
    3.32991 0.0023284 2.28314e-07 -3.09661e-10 -9.47714e-14 -11269.2 4.23171 
;
Tad = 1925.26

phi = 2.82
ft = 0.153281
fuel fuel	1	44.0962
    300	5000	1000
    7.53414 0.0188722 -6.27185e-06 9.14756e-10 -4.78381e-14 -16467.5 -17.8923 
    0.933554 0.0264246 6.10597e-06 -2.19775e-08 9.51493e-12 -13958.5 19.2017 
;
oxidant 	1	28.8504
    200	6000	1000
    3.10131 0.00124137 -4.18816e-07 6.64158e-11 -3.91274e-15 -985.266 5.35597 
    3.58378 -0.000727005 1.67057e-06 -1.09203e-10 -4.31765e-13 -1050.53 3.11239 
;
reactants 	1	30.4649
    300	5000	1000
    3.57073 0.00310844 -1.03864e-06 1.56253e-10 -8.56432e-15 -2624.8 2.89403 
    3.30312 0.00214828 2.14027e-06 -2.425e-09 6.21564e-13 -2417.45 4.81621 
;
burntProducts 	1	28.3233
    200	6000	1000
    3.10558 0.00179747 -5.94696e-07 9.05605e-11 -5.08443e-15 -11003.6 5.12104 
    3.49796 0.000638555 -1.83881e-07 1.20989e-09 -7.68691e-13 -11080.5 3.18188 
;
products 	1	29.3623
    300	5000	1000
    3.3973 0.00292221 -9.68659e-07 1.44852e-10 -7.90068e-15 -11363.5 3.60512 
    3.32904 0.00233712 2.30441e-07 -3.17503e-10 -9.12933e-14 -11270.1 4.23713 
;
Tad = 1923.36

phi = 2.83
ft = 0.153741
fuel fuel	1	44.0962
    300	5000	1000
    7.53414 0.0188722 -6.27185e-06 9.14756e-10 -4.78381e-14 -16467.5 -17.8923 
    0.933554 0.0264246 6.10597e-06 -2.19775e-08 9.51493e-12 -13958.5 19.2017 
;
oxidant 	1	28.8504
    200	6000	1000
    3.10131 0.00124137 -4.18816e-07 6.64158e-11 -3.91274e-15 -985.266 5.35597 
    3.58378 -0.000727005 1.67057e-06 -1.09203e-10 -4.31765e-13 -1050.53 3.11239 
;
reactants 	1	30.47
    300	5000	1000
    3.57222 0.00311436 -1.0406e-06 1.56538e-10 -8.57907e-15 -2629.99 2.88622 
    3.30224 0.00215739 2.14176e-06 -2.43234e-09 6.24903e-13 -2421.79 4.82161 
;
burntProducts 	1	28.3233
    200	6000	1000
    3.10558 0.00179747 -5.94696e-07 9.05605e-11 -5.08443e-15 -11003.6 5.12104 
    3.49796 0.000638555 -1.83881e-07 1.20989e-09 -7.68691e-13 -11080.5 3.18188 
;
products 	1	29.3676
    300	5000	1000
    3.39879 0.00292798 -9.70578e-07 1.4513e-10 -7.91513e-15 -11365.3 3.59734 
    3.32817 0.00234584 2.32567e-07 -3.2534e-10 -8.78178e-14 -11271.1 4.24254 
;
Tad = 1921.46

phi = 2.84
ft = 0.1542
fuel fuel	1	44.0962
    300	5000	1000
    7.53414 0.0188722 -6.27185e-06 9.14756e-10 -4.78381e-14 -16467.5 -17.8923 
    0.933554 0.0264246 6.10597e-06 -2.19775e-08 9.51493e-12 -13958.5 19.2017 
;
oxidant 	1	28.8504
    200	6000	1000
    3.10131 0.00124137 -4.18816e-07 6.64158e-11 -3.91274e-15 -985.266 5.35597 
    3.58378 -0.000727005 1.67057e-06 -1.09203e-10 -4.31765e-13 -1050.53 3.11239 
;
reactants 	1	30.4751
    300	5000	1000
    3.57371 0.00312027 -1.04256e-06 1.56822e-10 -8.5938e-15 -2635.19 2.87843 
    3.30135 0.0021665 2.14324e-06 -2.43967e-09 6.28239e-13 -2426.11 4.827 
;
burntProducts 	1	28.3233
    200	6000	1000
    3.10558 0.00179747 -5.94696e-07 9.05605e-11 -5.08443e-15 -11003.6 5.12104 
    3.49796 0.000638555 -1.83881e-07 1.20989e-09 -7.68691e-13 -11080.5 3.18188 
;
products 	1	29.3729
    300	5000	1000
    3.40029 0.00293375 -9.72495e-07 1.45409e-10 -7.92957e-15 -11367.2 3.58957 
    3.32731 0.00235454 2.34691e-07 -3.33171e-10 -8.43448e-14 -11272.1 4.24795 
;
Tad = 1919.56

phi = 2.85
ft = 0.154659
fuel fuel	1	44.0962
    300	5000	1000
    7.53414 0.0188722 -6.27185e-06 9.14756e-10 -4.78381e-14 -16467.5 -17.8923 
    0.933554 0.0264246 6.10597e-06 -2.19775e-08 9.51493e-12 -13958.5 19.2017 
;
oxidant 	1	28.8504
    200	6000	1000
    3.10131 0.00124137 -4.18816e-07 6.64158e-11 -3.91274e-15 -985.266 5.35597 
    3.58378 -0.000727005 1.67057e-06 -1.09203e-10 -4.31765e-13 -1050.53 3.11239 
;
reactants 	1	30.4802
    300	5000	1000
    3.57519 0.00312618 -1.04453e-06 1.57107e-10 -8.60852e-15 -2640.37 2.87064 
    3.30046 0.0021756 2.14473e-06 -2.447e-09 6.31572e-13 -2430.44 4.83239 
;
burntProducts 	1	28.3233
    200	6000	1000
    3.10558 0.00179747 -5.94696e-07 9.05605e-11 -5.08443e-15 -11003.6 5.12104 
    3.49796 0.000638555 -1.83881e-07 1.20989e-09 -7.68691e-13 -11080.5 3.18188 
;
products 	1	29.3783
    300	5000	1000
    3.40178 0.00293951 -9.74411e-07 1.45687e-10 -7.944e-15 -11369 3.5818 
    3.32644 0.00236325 2.36814e-07 -3.40996e-10 -8.08743e-14 -11273 4.25336 
;
Tad = 1917.68

phi = 2.86
ft = 0.155118
fuel fuel	1	44.0962
    300	5000	1000
    7.53414 0.0188722 -6.27185e-06 9.14756e-10 -4.78381e-14 -16467.5 -17.8923 
    0.933554 0.0264246 6.10597e-06 -2.19775e-08 9.51493e-12 -13958.5 19.2017 
;
oxidant 	1	28.8504
    200	6000	1000
    3.10131 0.00124137 -4.18816e-07 6.64158e-11 -3.91274e-15 -985.266 5.35597 
    3.58378 -0.000727005 1.67057e-06 -1.09203e-10 -4.31765e-13 -1050.53 3.11239 
;
reactants 	1	30.4853
    300	5000	1000
    3.57668 0.00313208 -1.04649e-06 1.57391e-10 -8.62323e-15 -2645.56 2.86285 
    3.29957 0.00218469 2.14621e-06 -2.45433e-09 6.34903e-13 -2434.76 4.83778 
;
burntProducts 	1	28.3233
    200	6000	1000
    3.10558 0.00179747 -5.94696e-07 9.05605e-11 -5.08443e-15 -11003.6 5.12104 
    3.49796 0.000638555 -1.83881e-07 1.20989e-09 -7.68691e-13 -11080.5 3.18188 
;
products 	1	29.3836
    300	5000	1000
    3.40328 0.00294527 -9.76326e-07 1.45965e-10 -7.95842e-15 -11370.9 3.57404 
    3.32558 0.00237194 2.38935e-07 -3.48815e-10 -7.74062e-14 -11274 4.25876 
;
Tad = 1915.79

phi = 2.87
ft = 0.155576
fuel fuel	1	44.0962
    300	5000	1000
    7.53414 0.0188722 -6.27185e-06 9.14756e-10 -4.78381e-14 -16467.5 -17.8923 
    0.933554 0.0264246 6.10597e-06 -2.19775e-08 9.51493e-12 -13958.5 19.2017 
;
oxidant 	1	28.8504
    200	6000	1000
    3.10131 0.00124137 -4.18816e-07 6.64158e-11 -3.91274e-15 -985.266 5.35597 
    3.58378 -0.000727005 1.67057e-06 -1.09203e-10 -4.31765e-13 -1050.53 3.11239 
;
reactants 	1	30.4904
    300	5000	1000
    3.57816 0.00313798 -1.04844e-06 1.57674e-10 -8.63793e-15 -2650.74 2.85507 
    3.29868 0.00219378 2.1477e-06 -2.46164e-09 6.38231e-13 -2439.08 4.84317 
;
burntProducts 	1	28.3233
    200	6000	1000
    3.10558 0.00179747 -5.94696e-07 9.05605e-11 -5.08443e-15 -11003.6 5.12104 
    3.49796 0.000638555 -1.83881e-07 1.20989e-09 -7.68691e-13 -11080.5 3.18188 
;
products 	1	29.3889
    300	5000	1000
    3.40477 0.00295102 -9.78239e-07 1.46242e-10 -7.97282e-15 -11372.7 3.56628 
    3.32471 0.00238063 2.41055e-07 -3.56629e-10 -7.39407e-14 -11275 4.26416 
;
Tad = 1913.91

phi = 2.88
ft = 0.156033
fuel fuel	1	44.0962
    300	5000	1000
    7.53414 0.0188722 -6.27185e-06 9.14756e-10 -4.78381e-14 -16467.5 -17.8923 
    0.933554 0.0264246 6.10597e-06 -2.19775e-08 9.51493e-12 -13958.5 19.2017 
;
oxidant 	1	28.8504
    200	6000	1000
    3.10131 0.00124137 -4.18816e-07 6.64158e-11 -3.91274e-15 -985.266 5.35597 
    3.58378 -0.000727005 1.67057e-06 -1.09203e-10 -4.31765e-13 -1050.53 3.11239 
;
reactants 	1	30.4955
    300	5000	1000
    3.57964 0.00314388 -1.0504e-06 1.57958e-10 -8.65261e-15 -2655.92 2.8473 
    3.2978 0.00220285 2.14918e-06 -2.46896e-09 6.41557e-13 -2443.4 4.84855 
;
burntProducts 	1	28.3233
    200	6000	1000
    3.10558 0.00179747 -5.94696e-07 9.05605e-11 -5.08443e-15 -11003.6 5.12104 
    3.49796 0.000638555 -1.83881e-07 1.20989e-09 -7.68691e-13 -11080.5 3.18188 
;
products 	1	29.3942
    300	5000	1000
    3.40626 0.00295677 -9.80151e-07 1.4652e-10 -7.98722e-15 -11374.6 3.55853 
    3.32385 0.00238932 2.43173e-07 -3.64438e-10 -7.04778e-14 -11276 4.26956 
;
Tad = 1912.04

phi = 2.89
ft = 0.15649
fuel fuel	1	44.0962
    300	5000	1000
    7.53414 0.0188722 -6.27185e-06 9.14756e-10 -4.78381e-14 -16467.5 -17.8923 
    0.933554 0.0264246 6.10597e-06 -2.19775e-08 9.51493e-12 -13958.5 19.2017 
;
oxidant 	1	28.8504
    200	6000	1000
    3.10131 0.00124137 -4.18816e-07 6.64158e-11 -3.91274e-15 -985.266 5.35597 
    3.58378 -0.000727005 1.67057e-06 -1.09203e-10 -4.31765e-13 -1050.53 3.11239 
;
reactants 	1	30.5006
    300	5000	1000
    3.58113 0.00314977 -1.05236e-06 1.58242e-10 -8.66729e-15 -2661.09 2.83953 
    3.29691 0.00221193 2.15066e-06 -2.47626e-09 6.44881e-13 -2447.71 4.85392 
;
burntProducts 	1	28.3233
    200	6000	1000
    3.10558 0.00179747 -5.94696e-07 9.05605e-11 -5.08443e-15 -11003.6 5.12104 
    3.49796 0.000638555 -1.83881e-07 1.20989e-09 -7.68691e-13 -11080.5 3.18188 
;
products 	1	29.3995
    300	5000	1000
    3.40775 0.00296252 -9.82061e-07 1.46797e-10 -8.00161e-15 -11376.4 3.55079 
    3.32299 0.00239799 2.45289e-07 -3.7224e-10 -6.70173e-14 -11276.9 4.27495 
;
Tad = 1910.17

phi = 2.9
ft = 0.156947
fuel fuel	1	44.0962
    300	5000	1000
    7.53414 0.0188722 -6.27185e-06 9.14756e-10 -4.78381e-14 -16467.5 -17.8923 
    0.933554 0.0264246 6.10597e-06 -2.19775e-08 9.51493e-12 -13958.5 19.2017 
;
oxidant 	1	28.8504
    200	6000	1000
    3.10131 0.00124137 -4.18816e-07 6.64158e-11 -3.91274e-15 -985.266 5.35597 
    3.58378 -0.000727005 1.67057e-06 -1.09203e-10 -4.31765e-13 -1050.53 3.11239 
;
reactants 	1	30.5057
    300	5000	1000
    3.58261 0.00315565 -1.05431e-06 1.58525e-10 -8.68196e-15 -2666.26 2.83177 
    3.29603 0.00222099 2.15214e-06 -2.48356e-09 6.48202e-13 -2452.02 4.85929 
;
burntProducts 	1	28.3233
    200	6000	1000
    3.10558 0.00179747 -5.94696e-07 9.05605e-11 -5.08443e-15 -11003.6 5.12104 
    3.49796 0.000638555 -1.83881e-07 1.20989e-09 -7.68691e-13 -11080.5 3.18188 
;
products 	1	29.4048
    300	5000	1000
    3.40924 0.00296826 -9.8397e-07 1.47074e-10 -8.01598e-15 -11378.2 3.54305 
    3.32212 0.00240666 2.47404e-07 -3.80037e-10 -6.35593e-14 -11277.9 4.28033 
;
Tad = 1908.31

phi = 2.91
ft = 0.157403
fuel fuel	1	44.0962
    300	5000	1000
    7.53414 0.0188722 -6.27185e-06 9.14756e-10 -4.78381e-14 -16467.5 -17.8923 
    0.933554 0.0264246 6.10597e-06 -2.19775e-08 9.51493e-12 -13958.5 19.2017 
;
oxidant 	1	28.8504
    200	6000	1000
    3.10131 0.00124137 -4.18816e-07 6.64158e-11 -3.91274e-15 -985.266 5.35597 
    3.58378 -0.000727005 1.67057e-06 -1.09203e-10 -4.31765e-13 -1050.53 3.11239 
;
reactants 	1	30.5108
    300	5000	1000
    3.58408 0.00316154 -1.05626e-06 1.58808e-10 -8.69661e-15 -2671.42 2.82401 
    3.29514 0.00223005 2.15362e-06 -2.49086e-09 6.5152e-13 -2456.33 4.86466 
;
burntProducts 	1	28.3233
    200	6000	1000
    3.10558 0.00179747 -5.94696e-07 9.05605e-11 -5.08443e-15 -11003.6 5.12104 
    3.49796 0.000638555 -1.83881e-07 1.20989e-09 -7.68691e-13 -11080.5 3.18188 
;
products 	1	29.4101
    300	5000	1000
    3.41073 0.002974 -9.85878e-07 1.47351e-10 -8.03035e-15 -11380.1 3.53532 
    3.32126 0.00241533 2.49518e-07 -3.87829e-10 -6.01038e-14 -11278.9 4.28572 
;
Tad = 1906.46

phi = 2.92
ft = 0.157858
fuel fuel	1	44.0962
    300	5000	1000
    7.53414 0.0188722 -6.27185e-06 9.14756e-10 -4.78381e-14 -16467.5 -17.8923 
    0.933554 0.0264246 6.10597e-06 -2.19775e-08 9.51493e-12 -13958.5 19.2017 
;
oxidant 	1	28.8504
    200	6000	1000
    3.10131 0.00124137 -4.18816e-07 6.64158e-11 -3.91274e-15 -985.266 5.35597 
    3.58378 -0.000727005 1.67057e-06 -1.09203e-10 -4.31765e-13 -1050.53 3.11239 
;
reactants 	1	30.5159
    300	5000	1000
    3.58556 0.00316741 -1.05822e-06 1.59091e-10 -8.71125e-15 -2676.59 2.81626 
    3.29426 0.0022391 2.1551e-06 -2.49815e-09 6.54836e-13 -2460.63 4.87002 
;
burntProducts 	1	28.3233
    200	6000	1000
    3.10558 0.00179747 -5.94696e-07 9.05605e-11 -5.08443e-15 -11003.6 5.12104 
    3.49796 0.000638555 -1.83881e-07 1.20989e-09 -7.68691e-13 -11080.5 3.18188 
;
products 	1	29.4154
    300	5000	1000
    3.41222 0.00297973 -9.87784e-07 1.47628e-10 -8.04471e-15 -11381.9 3.52759 
    3.3204 0.00242399 2.5163e-07 -3.95615e-10 -5.66508e-14 -11279.8 4.2911 
;
Tad = 1904.6

phi = 2.93
ft = 0.158313
fuel fuel	1	44.0962
    300	5000	1000
    7.53414 0.0188722 -6.27185e-06 9.14756e-10 -4.78381e-14 -16467.5 -17.8923 
    0.933554 0.0264246 6.10597e-06 -2.19775e-08 9.51493e-12 -13958.5 19.2017 
;
oxidant 	1	28.8504
    200	6000	1000
    3.10131 0.00124137 -4.18816e-07 6.64158e-11 -3.91274e-15 -985.266 5.35597 
    3.58378 -0.000727005 1.67057e-06 -1.09203e-10 -4.31765e-13 -1050.53 3.11239 
;
reactants 	1	30.521
    300	5000	1000
    3.58704 0.00317329 -1.06017e-06 1.59373e-10 -8.72589e-15 -2681.74 2.80852 
    3.29338 0.00224815 2.15658e-06 -2.50544e-09 6.58149e-13 -2464.93 4.87538 
;
burntProducts 	1	28.3233
    200	6000	1000
    3.10558 0.00179747 -5.94696e-07 9.05605e-11 -5.08443e-15 -11003.6 5.12104 
    3.49796 0.000638555 -1.83881e-07 1.20989e-09 -7.68691e-13 -11080.5 3.18188 
;
products 	1	29.4207
    300	5000	1000
    3.4137 0.00298546 -9.89689e-07 1.47905e-10 -8.05905e-15 -11383.7 3.51987 
    3.31954 0.00243264 2.5374e-07 -4.03395e-10 -5.32002e-14 -11280.8 4.29647 
;
Tad = 1902.76

phi = 2.94
ft = 0.158768
fuel fuel	1	44.0962
    300	5000	1000
    7.53414 0.0188722 -6.27185e-06 9.14756e-10 -4.78381e-14 -16467.5 -17.8923 
    0.933554 0.0264246 6.10597e-06 -2.19775e-08 9.51493e-12 -13958.5 19.2017 
;
oxidant 	1	28.8504
    200	6000	1000
    3.10131 0.00124137 -4.18816e-07 6.64158e-11 -3.91274e-15 -985.266 5.35597 
    3.58378 -0.000727005 1.67057e-06 -1.09203e-10 -4.31765e-13 -1050.53 3.11239 
;
reactants 	1	30.526
    300	5000	1000
    3.58851 0.00317916 -1.06211e-06 1.59656e-10 -8.74051e-15 -2686.9 2.80078 
    3.29249 0.00225718 2.15806e-06 -2.51271e-09 6.6146e-13 -2469.23 4.88074 
;
burntProducts 	1	28.3233
    200	6000	1000
    3.10558 0.00179747 -5.94696e-07 9.05605e-11 -5.08443e-15 -11003.6 5.12104 
    3.49796 0.000638555 -1.83881e-07 1.20989e-09 -7.68691e-13 -11080.5 3.18188 
;
products 	1	29.426
    300	5000	1000
    3.41519 0.00299119 -9.91592e-07 1.48181e-10 -8.07339e-15 -11385.6 3.51215 
    3.31868 0.00244128 2.55849e-07 -4.11169e-10 -4.97522e-14 -11281.8 4.30184 
;
Tad = 1900.92

phi = 2.95
ft = 0.159222
fuel fuel	1	44.0962
    300	5000	1000
    7.53414 0.0188722 -6.27185e-06 9.14756e-10 -4.78381e-14 -16467.5 -17.8923 
    0.933554 0.0264246 6.10597e-06 -2.19775e-08 9.51493e-12 -13958.5 19.2017 
;
oxidant 	1	28.8504
    200	6000	1000
    3.10131 0.00124137 -4.18816e-07 6.64158e-11 -3.91274e-15 -985.266 5.35597 
    3.58378 -0.000727005 1.67057e-06 -1.09203e-10 -4.31765e-13 -1050.53 3.11239 
;
reactants 	1	30.5311
    300	5000	1000
    3.58999 0.00318502 -1.06406e-06 1.59938e-10 -8.75512e-15 -2692.05 2.79305 
    3.29161 0.00226622 2.15953e-06 -2.51999e-09 6.64769e-13 -2473.52 4.88609 
;
burntProducts 	1	28.3233
    200	6000	1000
    3.10558 0.00179747 -5.94696e-07 9.05605e-11 -5.08443e-15 -11003.6 5.12104 
    3.49796 0.000638555 -1.83881e-07 1.20989e-09 -7.68691e-13 -11080.5 3.18188 
;
products 	1	29.4313
    300	5000	1000
    3.41667 0.00299691 -9.93494e-07 1.48457e-10 -8.08771e-15 -11387.4 3.50444 
    3.31782 0.00244992 2.57957e-07 -4.18938e-10 -4.63067e-14 -11282.7 4.30721 
;
Tad = 1899.08

phi = 2.96
ft = 0.159675
fuel fuel	1	44.0962
    300	5000	1000
    7.53414 0.0188722 -6.27185e-06 9.14756e-10 -4.78381e-14 -16467.5 -17.8923 
    0.933554 0.0264246 6.10597e-06 -2.19775e-08 9.51493e-12 -13958.5 19.2017 
;
oxidant 	1	28.8504
    200	6000	1000
    3.10131 0.00124137 -4.18816e-07 6.64158e-11 -3.91274e-15 -985.266 5.35597 
    3.58378 -0.000727005 1.67057e-06 -1.09203e-10 -4.31765e-13 -1050.53 3.11239 
;
reactants 	1	30.5362
    300	5000	1000
    3.59146 0.00319088 -1.06601e-06 1.6022e-10 -8.76972e-15 -2697.19 2.78532 
    3.29073 0.00227524 2.16101e-06 -2.52726e-09 6.68075e-13 -2477.81 4.89144 
;
burntProducts 	1	28.3233
    200	6000	1000
    3.10558 0.00179747 -5.94696e-07 9.05605e-11 -5.08443e-15 -11003.6 5.12104 
    3.49796 0.000638555 -1.83881e-07 1.20989e-09 -7.68691e-13 -11080.5 3.18188 
;
products 	1	29.4366
    300	5000	1000
    3.41815 0.00300262 -9.95395e-07 1.48733e-10 -8.10203e-15 -11389.2 3.49674 
    3.31696 0.00245856 2.60063e-07 -4.26702e-10 -4.28636e-14 -11283.7 4.31257 
;
Tad = 1897.25

phi = 2.97
ft = 0.160128
fuel fuel	1	44.0962
    300	5000	1000
    7.53414 0.0188722 -6.27185e-06 9.14756e-10 -4.78381e-14 -16467.5 -17.8923 
    0.933554 0.0264246 6.10597e-06 -2.19775e-08 9.51493e-12 -13958.5 19.2017 
;
oxidant 	1	28.8504
    200	6000	1000
    3.10131 0.00124137 -4.18816e-07 6.64158e-11 -3.91274e-15 -985.266 5.35597 
    3.58378 -0.000727005 1.67057e-06 -1.09203e-10 -4.31765e-13 -1050.53 3.11239 
;
reactants 	1	30.5412
    300	5000	1000
    3.59293 0.00319674 -1.06795e-06 1.60502e-10 -8.78431e-15 -2702.33 2.7776 
    3.28985 0.00228426 2.16248e-06 -2.53452e-09 6.71379e-13 -2482.1 4.89678 
;
burntProducts 	1	28.3233
    200	6000	1000
    3.10558 0.00179747 -5.94696e-07 9.05605e-11 -5.08443e-15 -11003.6 5.12104 
    3.49796 0.000638555 -1.83881e-07 1.20989e-09 -7.68691e-13 -11080.5 3.18188 
;
products 	1	29.4418
    300	5000	1000
    3.41963 0.00300834 -9.97295e-07 1.49009e-10 -8.11633e-15 -11391.1 3.48904 
    3.3161 0.00246719 2.62167e-07 -4.3446e-10 -3.9423e-14 -11284.6 4.31793 
;
Tad = 1895.42

phi = 2.98
ft = 0.160581
fuel fuel	1	44.0962
    300	5000	1000
    7.53414 0.0188722 -6.27185e-06 9.14756e-10 -4.78381e-14 -16467.5 -17.8923 
    0.933554 0.0264246 6.10597e-06 -2.19775e-08 9.51493e-12 -13958.5 19.2017 
;
oxidant 	1	28.8504
    200	6000	1000
    3.10131 0.00124137 -4.18816e-07 6.64158e-11 -3.91274e-15 -985.266 5.35597 
    3.58378 -0.000727005 1.67057e-06 -1.09203e-10 -4.31765e-13 -1050.53 3.11239 
;
reactants 	1	30.5463
    300	5000	1000
    3.59441 0.00320259 -1.06989e-06 1.60783e-10 -8.79889e-15 -2707.47 2.76988 
    3.28897 0.00229327 2.16395e-06 -2.54178e-09 6.7468e-13 -2486.38 4.90212 
;
burntProducts 	1	28.3233
    200	6000	1000
    3.10558 0.00179747 -5.94696e-07 9.05605e-11 -5.08443e-15 -11003.6 5.12104 
    3.49796 0.000638555 -1.83881e-07 1.20989e-09 -7.68691e-13 -11080.5 3.18188 
;
products 	1	29.4471
    300	5000	1000
    3.42112 0.00301404 -9.99193e-07 1.49284e-10 -8.13062e-15 -11392.9 3.48134 
    3.31525 0.00247581 2.6427e-07 -4.42212e-10 -3.59849e-14 -11285.6 4.32329 
;
Tad = 1893.6

phi = 2.99
ft = 0.161033
fuel fuel	1	44.0962
    300	5000	1000
    7.53414 0.0188722 -6.27185e-06 9.14756e-10 -4.78381e-14 -16467.5 -17.8923 
    0.933554 0.0264246 6.10597e-06 -2.19775e-08 9.51493e-12 -13958.5 19.2017 
;
oxidant 	1	28.8504
    200	6000	1000
    3.10131 0.00124137 -4.18816e-07 6.64158e-11 -3.91274e-15 -985.266 5.35597 
    3.58378 -0.000727005 1.67057e-06 -1.09203e-10 -4.31765e-13 -1050.53 3.11239 
;
reactants 	1	30.5514
    300	5000	1000
    3.59588 0.00320844 -1.07183e-06 1.61064e-10 -8.81345e-15 -2712.61 2.76217 
    3.28809 0.00230227 2.16542e-06 -2.54903e-09 6.77978e-13 -2490.66 4.90746 
;
burntProducts 	1	28.3233
    200	6000	1000
    3.10558 0.00179747 -5.94696e-07 9.05605e-11 -5.08443e-15 -11003.6 5.12104 
    3.49796 0.000638555 -1.83881e-07 1.20989e-09 -7.68691e-13 -11080.5 3.18188 
;
products 	1	29.4524
    300	5000	1000
    3.42259 0.00301975 -1.00109e-06 1.4956e-10 -8.14491e-15 -11394.7 3.47365 
    3.31439 0.00248442 2.66371e-07 -4.49958e-10 -3.25493e-14 -11286.6 4.32864 
;
Tad = 1891.78

phi = 3
ft = 0.161485
fuel fuel	1	44.0962
    300	5000	1000
    7.53414 0.0188722 -6.27185e-06 9.14756e-10 -4.78381e-14 -16467.5 -17.8923 
    0.933554 0.0264246 6.10597e-06 -2.19775e-08 9.51493e-12 -13958.5 19.2017 
;
oxidant 	1	28.8504
    200	6000	1000
    3.10131 0.00124137 -4.18816e-07 6.64158e-11 -3.91274e-15 -985.266 5.35597 
    3.58378 -0.000727005 1.67057e-06 -1.09203e-10 -4.31765e-13 -1050.53 3.11239 
;
reactants 	1	30.5564
    300	5000	1000
    3.59734 0.00321428 -1.07377e-06 1.61346e-10 -8.82801e-15 -2717.74 2.75447 
    3.28722 0.00231127 2.16689e-06 -2.55628e-09 6.81275e-13 -2494.94 4.91279 
;
burntProducts 	1	28.3233
    200	6000	1000
    3.10558 0.00179747 -5.94696e-07 9.05605e-11 -5.08443e-15 -11003.6 5.12104 
    3.49796 0.000638555 -1.83881e-07 1.20989e-09 -7.68691e-13 -11080.5 3.18188 
;
products 	1	29.4576
    300	5000	1000
    3.42407 0.00302545 -1.00298e-06 1.49835e-10 -8.15918e-15 -11396.5 3.46597 
    3.31353 0.00249303 2.68471e-07 -4.577e-10 -2.91161e-14 -11287.5 4.33399 
;
Tad = 1889.97


end
